
---------- Begin Simulation Statistics ----------
final_tick                                77213296021                       # Number of ticks from beginning of simulation (restored from checkpoints and never reset)
host_inst_rate                                 374139                       # Simulator instruction rate (inst/s)
host_mem_usage                                 685236                       # Number of bytes of host memory used
host_op_rate                                   409394                       # Simulator op (including micro ops) rate (op/s)
host_seconds                                   267.28                       # Real time elapsed on the host
host_tick_rate                              288884858                       # Simulator tick rate (ticks/s)
sim_freq                                 1000000000000                       # Frequency of simulated ticks
sim_insts                                   100000000                       # Number of instructions simulated
sim_ops                                     109423148                       # Number of ops (including micro ops) simulated
sim_seconds                                  0.077213                       # Number of seconds simulated
sim_ticks                                 77213296021                       # Number of ticks simulated
system.cpu.committedInsts                   100000000                       # Number of instructions committed
system.cpu.committedOps                     109423148                       # Number of ops (including micro ops) committed
system.cpu.cpi                               1.157621                       # CPI: cycles per instruction
system.cpu.discardedOps                        460368                       # Number of ops (including micro ops) which were discarded before commit
system.cpu.idleCycles                         5202329                       # Total number of cycles that the object has spent stopped
system.cpu.ipc                               0.863841                       # IPC: instructions per cycle
system.cpu.numCycles                        115762063                       # number of cpu cycles simulated
system.cpu.numFetchSuspends                         0                       # Number of times Execute suspended instruction fetching
system.cpu.numWorkItemsCompleted                    0                       # number of work items this cpu completed
system.cpu.numWorkItemsStarted                      0                       # number of work items this cpu started
system.cpu.op_class_0::No_OpClass                   0      0.00%      0.00% # Class of committed instruction
system.cpu.op_class_0::IntAlu                72978378     66.69%     66.69% # Class of committed instruction
system.cpu.op_class_0::IntMult                 567877      0.52%     67.21% # Class of committed instruction
system.cpu.op_class_0::IntDiv                       0      0.00%     67.21% # Class of committed instruction
system.cpu.op_class_0::FloatAdd                     0      0.00%     67.21% # Class of committed instruction
system.cpu.op_class_0::FloatCmp                     0      0.00%     67.21% # Class of committed instruction
system.cpu.op_class_0::FloatCvt                     0      0.00%     67.21% # Class of committed instruction
system.cpu.op_class_0::FloatMult                    0      0.00%     67.21% # Class of committed instruction
system.cpu.op_class_0::FloatMultAcc                 0      0.00%     67.21% # Class of committed instruction
system.cpu.op_class_0::FloatDiv                     0      0.00%     67.21% # Class of committed instruction
system.cpu.op_class_0::FloatMisc                    0      0.00%     67.21% # Class of committed instruction
system.cpu.op_class_0::FloatSqrt                    0      0.00%     67.21% # Class of committed instruction
system.cpu.op_class_0::SimdAdd                 241132      0.22%     67.43% # Class of committed instruction
system.cpu.op_class_0::SimdAddAcc                   0      0.00%     67.43% # Class of committed instruction
system.cpu.op_class_0::SimdAlu                 154494      0.14%     67.57% # Class of committed instruction
system.cpu.op_class_0::SimdCmp                 120566      0.11%     67.68% # Class of committed instruction
system.cpu.op_class_0::SimdCvt                      0      0.00%     67.68% # Class of committed instruction
system.cpu.op_class_0::SimdMisc                 44506      0.04%     67.73% # Class of committed instruction
system.cpu.op_class_0::SimdMult                     0      0.00%     67.73% # Class of committed instruction
system.cpu.op_class_0::SimdMultAcc                  0      0.00%     67.73% # Class of committed instruction
system.cpu.op_class_0::SimdShift                    0      0.00%     67.73% # Class of committed instruction
system.cpu.op_class_0::SimdShiftAcc                 0      0.00%     67.73% # Class of committed instruction
system.cpu.op_class_0::SimdDiv                      0      0.00%     67.73% # Class of committed instruction
system.cpu.op_class_0::SimdSqrt                     0      0.00%     67.73% # Class of committed instruction
system.cpu.op_class_0::SimdFloatAdd                 0      0.00%     67.73% # Class of committed instruction
system.cpu.op_class_0::SimdFloatAlu                 0      0.00%     67.73% # Class of committed instruction
system.cpu.op_class_0::SimdFloatCmp                 0      0.00%     67.73% # Class of committed instruction
system.cpu.op_class_0::SimdFloatCvt                 0      0.00%     67.73% # Class of committed instruction
system.cpu.op_class_0::SimdFloatDiv                 0      0.00%     67.73% # Class of committed instruction
system.cpu.op_class_0::SimdFloatMisc           166276      0.15%     67.88% # Class of committed instruction
system.cpu.op_class_0::SimdFloatMult                0      0.00%     67.88% # Class of committed instruction
system.cpu.op_class_0::SimdFloatMultAcc             0      0.00%     67.88% # Class of committed instruction
system.cpu.op_class_0::SimdFloatSqrt                0      0.00%     67.88% # Class of committed instruction
system.cpu.op_class_0::SimdReduceAdd                0      0.00%     67.88% # Class of committed instruction
system.cpu.op_class_0::SimdReduceAlu                0      0.00%     67.88% # Class of committed instruction
system.cpu.op_class_0::SimdReduceCmp                0      0.00%     67.88% # Class of committed instruction
system.cpu.op_class_0::SimdFloatReduceAdd            0      0.00%     67.88% # Class of committed instruction
system.cpu.op_class_0::SimdFloatReduceCmp            0      0.00%     67.88% # Class of committed instruction
system.cpu.op_class_0::SimdAes                      0      0.00%     67.88% # Class of committed instruction
system.cpu.op_class_0::SimdAesMix                   0      0.00%     67.88% # Class of committed instruction
system.cpu.op_class_0::SimdSha1Hash                 0      0.00%     67.88% # Class of committed instruction
system.cpu.op_class_0::SimdSha1Hash2                0      0.00%     67.88% # Class of committed instruction
system.cpu.op_class_0::SimdSha256Hash               0      0.00%     67.88% # Class of committed instruction
system.cpu.op_class_0::SimdSha256Hash2              0      0.00%     67.88% # Class of committed instruction
system.cpu.op_class_0::SimdShaSigma2                0      0.00%     67.88% # Class of committed instruction
system.cpu.op_class_0::SimdShaSigma3                0      0.00%     67.88% # Class of committed instruction
system.cpu.op_class_0::SimdPredAlu                  0      0.00%     67.88% # Class of committed instruction
system.cpu.op_class_0::MemRead               20628136     18.85%     86.73% # Class of committed instruction
system.cpu.op_class_0::MemWrite              14521783     13.27%    100.00% # Class of committed instruction
system.cpu.op_class_0::FloatMemRead                 0      0.00%    100.00% # Class of committed instruction
system.cpu.op_class_0::FloatMemWrite                0      0.00%    100.00% # Class of committed instruction
system.cpu.op_class_0::IprAccess                    0      0.00%    100.00% # Class of committed instruction
system.cpu.op_class_0::InstPrefetch                 0      0.00%    100.00% # Class of committed instruction
system.cpu.op_class_0::total                109423148                       # Class of committed instruction
system.cpu.tickCycles                       110559734                       # Number of cycles that the object actually ticked
system.cpu.workload.numSyscalls                    87                       # Number of system calls
system.membus.snoop_filter.hit_multi_requests            0                       # Number of requests hitting in the snoop filter with multiple (>1) holders of the requested data.
system.membus.snoop_filter.hit_multi_snoops            0                       # Number of snoops hitting in the snoop filter with multiple (>1) holders of the requested data.
system.membus.snoop_filter.hit_single_requests            0                       # Number of requests hitting in the snoop filter with a single holder of the requested data.
system.membus.snoop_filter.hit_single_snoops            0                       # Number of snoops hitting in the snoop filter with a single holder of the requested data.
system.membus.snoop_filter.tot_requests         39537                       # Total number of requests made to the snoop filter.
system.membus.snoop_filter.tot_snoops               0                       # Total number of snoops made to the snoop filter.
system.tol2bus.snoop_filter.hit_multi_requests          332                       # Number of requests hitting in the snoop filter with multiple (>1) holders of the requested data.
system.tol2bus.snoop_filter.hit_multi_snoops            0                       # Number of snoops hitting in the snoop filter with multiple (>1) holders of the requested data.
system.tol2bus.snoop_filter.hit_single_requests       189192                       # Number of requests hitting in the snoop filter with a single holder of the requested data.
system.tol2bus.snoop_filter.hit_single_snoops            0                       # Number of snoops hitting in the snoop filter with a single holder of the requested data.
system.tol2bus.snoop_filter.tot_requests       379789                       # Total number of requests made to the snoop filter.
system.tol2bus.snoop_filter.tot_snoops              0                       # Total number of snoops made to the snoop filter.
system.clk_domain.clock                          1000                       # Clock period in ticks
system.cpu.branchPred.lookups                20399729                       # Number of BP lookups
system.cpu.branchPred.condPredicted          16341019                       # Number of conditional branches predicted
system.cpu.branchPred.condIncorrect             80969                       # Number of conditional branches incorrect
system.cpu.branchPred.BTBLookups              8731974                       # Number of BTB lookups
system.cpu.branchPred.BTBHits                 8730671                       # Number of BTB hits
system.cpu.branchPred.BTBHitPct             99.985078                       # BTB Hit Percentage
system.cpu.branchPred.RASUsed                 1049788                       # Number of times the RAS was used to get a target.
system.cpu.branchPred.RASIncorrect                324                       # Number of incorrect RAS predictions.
system.cpu.branchPred.indirectLookups          433712                       # Number of indirect predictor lookups.
system.cpu.branchPred.indirectHits             299763                       # Number of indirect target hits.
system.cpu.branchPred.indirectMisses           133949                       # Number of indirect misses.
system.cpu.branchPred.indirectMispredicted         1039                       # Number of mispredicted indirect branches.
system.cpu.dcache.demand_hits::.cpu.data     35578814                       # number of demand (read+write) hits
system.cpu.dcache.demand_hits::total         35578814                       # number of demand (read+write) hits
system.cpu.dcache.overall_hits::.cpu.data     35582117                       # number of overall hits
system.cpu.dcache.overall_hits::total        35582117                       # number of overall hits
system.cpu.dcache.demand_misses::.cpu.data        75705                       # number of demand (read+write) misses
system.cpu.dcache.demand_misses::total          75705                       # number of demand (read+write) misses
system.cpu.dcache.overall_misses::.cpu.data        75745                       # number of overall misses
system.cpu.dcache.overall_misses::total         75745                       # number of overall misses
system.cpu.dcache.demand_miss_latency::.cpu.data   4891403813                       # number of demand (read+write) miss cycles
system.cpu.dcache.demand_miss_latency::total   4891403813                       # number of demand (read+write) miss cycles
system.cpu.dcache.overall_miss_latency::.cpu.data   4891403813                       # number of overall miss cycles
system.cpu.dcache.overall_miss_latency::total   4891403813                       # number of overall miss cycles
system.cpu.dcache.demand_accesses::.cpu.data     35654519                       # number of demand (read+write) accesses
system.cpu.dcache.demand_accesses::total     35654519                       # number of demand (read+write) accesses
system.cpu.dcache.overall_accesses::.cpu.data     35657862                       # number of overall (read+write) accesses
system.cpu.dcache.overall_accesses::total     35657862                       # number of overall (read+write) accesses
system.cpu.dcache.demand_miss_rate::.cpu.data     0.002123                       # miss rate for demand accesses
system.cpu.dcache.demand_miss_rate::total     0.002123                       # miss rate for demand accesses
system.cpu.dcache.overall_miss_rate::.cpu.data     0.002124                       # miss rate for overall accesses
system.cpu.dcache.overall_miss_rate::total     0.002124                       # miss rate for overall accesses
system.cpu.dcache.demand_avg_miss_latency::.cpu.data 64611.370623                       # average overall miss latency
system.cpu.dcache.demand_avg_miss_latency::total 64611.370623                       # average overall miss latency
system.cpu.dcache.overall_avg_miss_latency::.cpu.data 64577.250155                       # average overall miss latency
system.cpu.dcache.overall_avg_miss_latency::total 64577.250155                       # average overall miss latency
system.cpu.dcache.blocked_cycles::no_mshrs            0                       # number of cycles access was blocked
system.cpu.dcache.blocked_cycles::no_targets            0                       # number of cycles access was blocked
system.cpu.dcache.blocked::no_mshrs                 0                       # number of cycles access was blocked
system.cpu.dcache.blocked::no_targets               0                       # number of cycles access was blocked
system.cpu.dcache.avg_blocked_cycles::no_mshrs          nan                       # average number of cycles each access was blocked
system.cpu.dcache.avg_blocked_cycles::no_targets          nan                       # average number of cycles each access was blocked
system.cpu.dcache.writebacks::.writebacks        51233                       # number of writebacks
system.cpu.dcache.writebacks::total             51233                       # number of writebacks
system.cpu.dcache.demand_mshr_hits::.cpu.data        19627                       # number of demand (read+write) MSHR hits
system.cpu.dcache.demand_mshr_hits::total        19627                       # number of demand (read+write) MSHR hits
system.cpu.dcache.overall_mshr_hits::.cpu.data        19627                       # number of overall MSHR hits
system.cpu.dcache.overall_mshr_hits::total        19627                       # number of overall MSHR hits
system.cpu.dcache.demand_mshr_misses::.cpu.data        56078                       # number of demand (read+write) MSHR misses
system.cpu.dcache.demand_mshr_misses::total        56078                       # number of demand (read+write) MSHR misses
system.cpu.dcache.overall_mshr_misses::.cpu.data        56114                       # number of overall MSHR misses
system.cpu.dcache.overall_mshr_misses::total        56114                       # number of overall MSHR misses
system.cpu.dcache.demand_mshr_miss_latency::.cpu.data   3684910868                       # number of demand (read+write) MSHR miss cycles
system.cpu.dcache.demand_mshr_miss_latency::total   3684910868                       # number of demand (read+write) MSHR miss cycles
system.cpu.dcache.overall_mshr_miss_latency::.cpu.data   3686330244                       # number of overall MSHR miss cycles
system.cpu.dcache.overall_mshr_miss_latency::total   3686330244                       # number of overall MSHR miss cycles
system.cpu.dcache.demand_mshr_miss_rate::.cpu.data     0.001573                       # mshr miss rate for demand accesses
system.cpu.dcache.demand_mshr_miss_rate::total     0.001573                       # mshr miss rate for demand accesses
system.cpu.dcache.overall_mshr_miss_rate::.cpu.data     0.001574                       # mshr miss rate for overall accesses
system.cpu.dcache.overall_mshr_miss_rate::total     0.001574                       # mshr miss rate for overall accesses
system.cpu.dcache.demand_avg_mshr_miss_latency::.cpu.data 65710.454510                       # average overall mshr miss latency
system.cpu.dcache.demand_avg_mshr_miss_latency::total 65710.454510                       # average overall mshr miss latency
system.cpu.dcache.overall_avg_mshr_miss_latency::.cpu.data 65693.592401                       # average overall mshr miss latency
system.cpu.dcache.overall_avg_mshr_miss_latency::total 65693.592401                       # average overall mshr miss latency
system.cpu.dcache.replacements                  55090                       # number of replacements
system.cpu.dcache.ReadReq_hits::.cpu.data     21392475                       # number of ReadReq hits
system.cpu.dcache.ReadReq_hits::total        21392475                       # number of ReadReq hits
system.cpu.dcache.ReadReq_misses::.cpu.data        20075                       # number of ReadReq misses
system.cpu.dcache.ReadReq_misses::total         20075                       # number of ReadReq misses
system.cpu.dcache.ReadReq_miss_latency::.cpu.data    379250197                       # number of ReadReq miss cycles
system.cpu.dcache.ReadReq_miss_latency::total    379250197                       # number of ReadReq miss cycles
system.cpu.dcache.ReadReq_accesses::.cpu.data     21412550                       # number of ReadReq accesses(hits+misses)
system.cpu.dcache.ReadReq_accesses::total     21412550                       # number of ReadReq accesses(hits+misses)
system.cpu.dcache.ReadReq_miss_rate::.cpu.data     0.000938                       # miss rate for ReadReq accesses
system.cpu.dcache.ReadReq_miss_rate::total     0.000938                       # miss rate for ReadReq accesses
system.cpu.dcache.ReadReq_avg_miss_latency::.cpu.data 18891.666102                       # average ReadReq miss latency
system.cpu.dcache.ReadReq_avg_miss_latency::total 18891.666102                       # average ReadReq miss latency
system.cpu.dcache.ReadReq_mshr_hits::.cpu.data         2960                       # number of ReadReq MSHR hits
system.cpu.dcache.ReadReq_mshr_hits::total         2960                       # number of ReadReq MSHR hits
system.cpu.dcache.ReadReq_mshr_misses::.cpu.data        17115                       # number of ReadReq MSHR misses
system.cpu.dcache.ReadReq_mshr_misses::total        17115                       # number of ReadReq MSHR misses
system.cpu.dcache.ReadReq_mshr_miss_latency::.cpu.data    292358106                       # number of ReadReq MSHR miss cycles
system.cpu.dcache.ReadReq_mshr_miss_latency::total    292358106                       # number of ReadReq MSHR miss cycles
system.cpu.dcache.ReadReq_mshr_miss_rate::.cpu.data     0.000799                       # mshr miss rate for ReadReq accesses
system.cpu.dcache.ReadReq_mshr_miss_rate::total     0.000799                       # mshr miss rate for ReadReq accesses
system.cpu.dcache.ReadReq_avg_mshr_miss_latency::.cpu.data 17081.981069                       # average ReadReq mshr miss latency
system.cpu.dcache.ReadReq_avg_mshr_miss_latency::total 17081.981069                       # average ReadReq mshr miss latency
system.cpu.dcache.WriteReq_hits::.cpu.data     14186339                       # number of WriteReq hits
system.cpu.dcache.WriteReq_hits::total       14186339                       # number of WriteReq hits
system.cpu.dcache.WriteReq_misses::.cpu.data        55630                       # number of WriteReq misses
system.cpu.dcache.WriteReq_misses::total        55630                       # number of WriteReq misses
system.cpu.dcache.WriteReq_miss_latency::.cpu.data   4512153616                       # number of WriteReq miss cycles
system.cpu.dcache.WriteReq_miss_latency::total   4512153616                       # number of WriteReq miss cycles
system.cpu.dcache.WriteReq_accesses::.cpu.data     14241969                       # number of WriteReq accesses(hits+misses)
system.cpu.dcache.WriteReq_accesses::total     14241969                       # number of WriteReq accesses(hits+misses)
system.cpu.dcache.WriteReq_miss_rate::.cpu.data     0.003906                       # miss rate for WriteReq accesses
system.cpu.dcache.WriteReq_miss_rate::total     0.003906                       # miss rate for WriteReq accesses
system.cpu.dcache.WriteReq_avg_miss_latency::.cpu.data 81110.077584                       # average WriteReq miss latency
system.cpu.dcache.WriteReq_avg_miss_latency::total 81110.077584                       # average WriteReq miss latency
system.cpu.dcache.WriteReq_mshr_hits::.cpu.data        16667                       # number of WriteReq MSHR hits
system.cpu.dcache.WriteReq_mshr_hits::total        16667                       # number of WriteReq MSHR hits
system.cpu.dcache.WriteReq_mshr_misses::.cpu.data        38963                       # number of WriteReq MSHR misses
system.cpu.dcache.WriteReq_mshr_misses::total        38963                       # number of WriteReq MSHR misses
system.cpu.dcache.WriteReq_mshr_miss_latency::.cpu.data   3392552762                       # number of WriteReq MSHR miss cycles
system.cpu.dcache.WriteReq_mshr_miss_latency::total   3392552762                       # number of WriteReq MSHR miss cycles
system.cpu.dcache.WriteReq_mshr_miss_rate::.cpu.data     0.002736                       # mshr miss rate for WriteReq accesses
system.cpu.dcache.WriteReq_mshr_miss_rate::total     0.002736                       # mshr miss rate for WriteReq accesses
system.cpu.dcache.WriteReq_avg_mshr_miss_latency::.cpu.data 87071.138311                       # average WriteReq mshr miss latency
system.cpu.dcache.WriteReq_avg_mshr_miss_latency::total 87071.138311                       # average WriteReq mshr miss latency
system.cpu.dcache.SoftPFReq_hits::.cpu.data         3303                       # number of SoftPFReq hits
system.cpu.dcache.SoftPFReq_hits::total          3303                       # number of SoftPFReq hits
system.cpu.dcache.SoftPFReq_misses::.cpu.data           40                       # number of SoftPFReq misses
system.cpu.dcache.SoftPFReq_misses::total           40                       # number of SoftPFReq misses
system.cpu.dcache.SoftPFReq_accesses::.cpu.data         3343                       # number of SoftPFReq accesses(hits+misses)
system.cpu.dcache.SoftPFReq_accesses::total         3343                       # number of SoftPFReq accesses(hits+misses)
system.cpu.dcache.SoftPFReq_miss_rate::.cpu.data     0.011965                       # miss rate for SoftPFReq accesses
system.cpu.dcache.SoftPFReq_miss_rate::total     0.011965                       # miss rate for SoftPFReq accesses
system.cpu.dcache.SoftPFReq_mshr_misses::.cpu.data           36                       # number of SoftPFReq MSHR misses
system.cpu.dcache.SoftPFReq_mshr_misses::total           36                       # number of SoftPFReq MSHR misses
system.cpu.dcache.SoftPFReq_mshr_miss_latency::.cpu.data      1419376                       # number of SoftPFReq MSHR miss cycles
system.cpu.dcache.SoftPFReq_mshr_miss_latency::total      1419376                       # number of SoftPFReq MSHR miss cycles
system.cpu.dcache.SoftPFReq_mshr_miss_rate::.cpu.data     0.010769                       # mshr miss rate for SoftPFReq accesses
system.cpu.dcache.SoftPFReq_mshr_miss_rate::total     0.010769                       # mshr miss rate for SoftPFReq accesses
system.cpu.dcache.SoftPFReq_avg_mshr_miss_latency::.cpu.data 39427.111111                       # average SoftPFReq mshr miss latency
system.cpu.dcache.SoftPFReq_avg_mshr_miss_latency::total 39427.111111                       # average SoftPFReq mshr miss latency
system.cpu.dcache.LoadLockedReq_hits::.cpu.data        89006                       # number of LoadLockedReq hits
system.cpu.dcache.LoadLockedReq_hits::total        89006                       # number of LoadLockedReq hits
system.cpu.dcache.LoadLockedReq_accesses::.cpu.data        89006                       # number of LoadLockedReq accesses(hits+misses)
system.cpu.dcache.LoadLockedReq_accesses::total        89006                       # number of LoadLockedReq accesses(hits+misses)
system.cpu.dcache.StoreCondReq_hits::.cpu.data        89006                       # number of StoreCondReq hits
system.cpu.dcache.StoreCondReq_hits::total        89006                       # number of StoreCondReq hits
system.cpu.dcache.StoreCondReq_accesses::.cpu.data        89006                       # number of StoreCondReq accesses(hits+misses)
system.cpu.dcache.StoreCondReq_accesses::total        89006                       # number of StoreCondReq accesses(hits+misses)
system.cpu.dcache.power_state.pwrStateResidencyTicks::UNDEFINED  77213296021                       # Cumulative time (in ticks) in various power states
system.cpu.dcache.tags.tagsinuse          1020.667734                       # Cycle average of tags in use
system.cpu.dcache.tags.total_refs            35816243                       # Total number of references to valid blocks.
system.cpu.dcache.tags.sampled_refs             56114                       # Sample count of references to valid blocks.
system.cpu.dcache.tags.avg_refs            638.276419                       # Average number of references to valid blocks.
system.cpu.dcache.tags.warmup_cycle            192096                       # Cycle when the warmup percentage was hit.
system.cpu.dcache.tags.occ_blocks::.cpu.data  1020.667734                       # Average occupied blocks per requestor
system.cpu.dcache.tags.occ_percent::.cpu.data     0.996746                       # Average percentage of cache occupancy
system.cpu.dcache.tags.occ_percent::total     0.996746                       # Average percentage of cache occupancy
system.cpu.dcache.tags.occ_task_id_blocks::1024         1024                       # Occupied blocks per task id
system.cpu.dcache.tags.age_task_id_blocks_1024::0            4                       # Occupied blocks per task id
system.cpu.dcache.tags.age_task_id_blocks_1024::1           34                       # Occupied blocks per task id
system.cpu.dcache.tags.age_task_id_blocks_1024::2          408                       # Occupied blocks per task id
system.cpu.dcache.tags.age_task_id_blocks_1024::3          535                       # Occupied blocks per task id
system.cpu.dcache.tags.age_task_id_blocks_1024::4           43                       # Occupied blocks per task id
system.cpu.dcache.tags.occ_task_id_percent::1024            1                       # Percentage of cache occupancy per task id
system.cpu.dcache.tags.tag_accesses          71727862                       # Number of tag accesses
system.cpu.dcache.tags.data_accesses         71727862                       # Number of data accesses
system.cpu.dcache.tags.power_state.pwrStateResidencyTicks::UNDEFINED  77213296021                       # Cumulative time (in ticks) in various power states
system.cpu.dtb.instHits                             0                       # ITB inst hits
system.cpu.dtb.instMisses                           0                       # ITB inst misses
system.cpu.dtb.readHits                             0                       # DTB read hits
system.cpu.dtb.readMisses                           0                       # DTB read misses
system.cpu.dtb.writeHits                            0                       # DTB write hits
system.cpu.dtb.writeMisses                          0                       # DTB write misses
system.cpu.dtb.inserts                              0                       # Number of times an entry is inserted into the TLB
system.cpu.dtb.flushTlb                             0                       # Number of times complete TLB was flushed
system.cpu.dtb.flushTlbMva                          0                       # Number of times TLB was flushed by MVA
system.cpu.dtb.flushTlbMvaAsid                      0                       # Number of times TLB was flushed by MVA & ASID
system.cpu.dtb.flushTlbAsid                         0                       # Number of times TLB was flushed by ASID
system.cpu.dtb.flushedEntries                       0                       # Number of entries that have been flushed from TLB
system.cpu.dtb.alignFaults                          0                       # Number of TLB faults due to alignment restrictions
system.cpu.dtb.prefetchFaults                       0                       # Number of TLB faults due to prefetch
system.cpu.dtb.domainFaults                         0                       # Number of TLB faults due to domain restrictions
system.cpu.dtb.permsFaults                          0                       # Number of TLB faults due to permissions restrictions
system.cpu.dtb.readAccesses                         0                       # DTB read accesses
system.cpu.dtb.writeAccesses                        0                       # DTB write accesses
system.cpu.dtb.instAccesses                         0                       # ITB inst accesses
system.cpu.dtb.hits                                 0                       # Total TLB (inst and data) hits
system.cpu.dtb.misses                               0                       # Total TLB (inst and data) misses
system.cpu.dtb.accesses                             0                       # Total TLB (inst and data) accesses
system.cpu.dtb.stage2_mmu.stage2_tlb.instHits            0                       # ITB inst hits
system.cpu.dtb.stage2_mmu.stage2_tlb.instMisses            0                       # ITB inst misses
system.cpu.dtb.stage2_mmu.stage2_tlb.readHits            0                       # DTB read hits
system.cpu.dtb.stage2_mmu.stage2_tlb.readMisses            0                       # DTB read misses
system.cpu.dtb.stage2_mmu.stage2_tlb.writeHits            0                       # DTB write hits
system.cpu.dtb.stage2_mmu.stage2_tlb.writeMisses            0                       # DTB write misses
system.cpu.dtb.stage2_mmu.stage2_tlb.inserts            0                       # Number of times an entry is inserted into the TLB
system.cpu.dtb.stage2_mmu.stage2_tlb.flushTlb            0                       # Number of times complete TLB was flushed
system.cpu.dtb.stage2_mmu.stage2_tlb.flushTlbMva            0                       # Number of times TLB was flushed by MVA
system.cpu.dtb.stage2_mmu.stage2_tlb.flushTlbMvaAsid            0                       # Number of times TLB was flushed by MVA & ASID
system.cpu.dtb.stage2_mmu.stage2_tlb.flushTlbAsid            0                       # Number of times TLB was flushed by ASID
system.cpu.dtb.stage2_mmu.stage2_tlb.flushedEntries            0                       # Number of entries that have been flushed from TLB
system.cpu.dtb.stage2_mmu.stage2_tlb.alignFaults            0                       # Number of TLB faults due to alignment restrictions
system.cpu.dtb.stage2_mmu.stage2_tlb.prefetchFaults            0                       # Number of TLB faults due to prefetch
system.cpu.dtb.stage2_mmu.stage2_tlb.domainFaults            0                       # Number of TLB faults due to domain restrictions
system.cpu.dtb.stage2_mmu.stage2_tlb.permsFaults            0                       # Number of TLB faults due to permissions restrictions
system.cpu.dtb.stage2_mmu.stage2_tlb.readAccesses            0                       # DTB read accesses
system.cpu.dtb.stage2_mmu.stage2_tlb.writeAccesses            0                       # DTB write accesses
system.cpu.dtb.stage2_mmu.stage2_tlb.instAccesses            0                       # ITB inst accesses
system.cpu.dtb.stage2_mmu.stage2_tlb.hits            0                       # Total TLB (inst and data) hits
system.cpu.dtb.stage2_mmu.stage2_tlb.misses            0                       # Total TLB (inst and data) misses
system.cpu.dtb.stage2_mmu.stage2_tlb.accesses            0                       # Total TLB (inst and data) accesses
system.cpu.dtb.stage2_mmu.stage2_tlb.walker.walks            0                       # Table walker walks requested
system.cpu.dtb.stage2_mmu.stage2_tlb.walker.requestOrigin_Requested::Data            0                       # Table walker requests started/completed, data/inst
system.cpu.dtb.stage2_mmu.stage2_tlb.walker.requestOrigin_Requested::Inst            0                       # Table walker requests started/completed, data/inst
system.cpu.dtb.stage2_mmu.stage2_tlb.walker.requestOrigin_Requested::total            0                       # Table walker requests started/completed, data/inst
system.cpu.dtb.stage2_mmu.stage2_tlb.walker.requestOrigin_Completed::Data            0                       # Table walker requests started/completed, data/inst
system.cpu.dtb.stage2_mmu.stage2_tlb.walker.requestOrigin_Completed::Inst            0                       # Table walker requests started/completed, data/inst
system.cpu.dtb.stage2_mmu.stage2_tlb.walker.requestOrigin_Completed::total            0                       # Table walker requests started/completed, data/inst
system.cpu.dtb.stage2_mmu.stage2_tlb.walker.requestOrigin::total            0                       # Table walker requests started/completed, data/inst
system.cpu.dtb.stage2_mmu.stage2_tlb.walker.power_state.pwrStateResidencyTicks::UNDEFINED  77213296021                       # Cumulative time (in ticks) in various power states
system.cpu.dtb.walker.walks                         0                       # Table walker walks requested
system.cpu.dtb.walker.requestOrigin_Requested::Data            0                       # Table walker requests started/completed, data/inst
system.cpu.dtb.walker.requestOrigin_Requested::Inst            0                       # Table walker requests started/completed, data/inst
system.cpu.dtb.walker.requestOrigin_Requested::total            0                       # Table walker requests started/completed, data/inst
system.cpu.dtb.walker.requestOrigin_Completed::Data            0                       # Table walker requests started/completed, data/inst
system.cpu.dtb.walker.requestOrigin_Completed::Inst            0                       # Table walker requests started/completed, data/inst
system.cpu.dtb.walker.requestOrigin_Completed::total            0                       # Table walker requests started/completed, data/inst
system.cpu.dtb.walker.requestOrigin::total            0                       # Table walker requests started/completed, data/inst
system.cpu.dtb.walker.power_state.pwrStateResidencyTicks::UNDEFINED  77213296021                       # Cumulative time (in ticks) in various power states
system.cpu.fetch2.intInstructions            49406203                       # Number of integer instructions successfully decoded
system.cpu.fetch2.fpInstructions                    0                       # Number of floating point instructions successfully decoded
system.cpu.fetch2.vecInstructions                   0                       # Number of SIMD instructions successfully decoded
system.cpu.fetch2.loadInstructions           17098709                       # Number of memory load instructions successfully decoded
system.cpu.fetch2.storeInstructions           9762416                       # Number of memory store instructions successfully decoded
system.cpu.fetch2.amoInstructions                   0                       # Number of memory atomic instructions successfully decoded
system.cpu.icache.demand_hits::.cpu.inst     27627919                       # number of demand (read+write) hits
system.cpu.icache.demand_hits::total         27627919                       # number of demand (read+write) hits
system.cpu.icache.overall_hits::.cpu.inst     27627919                       # number of overall hits
system.cpu.icache.overall_hits::total        27627919                       # number of overall hits
system.cpu.icache.demand_misses::.cpu.inst       134488                       # number of demand (read+write) misses
system.cpu.icache.demand_misses::total         134488                       # number of demand (read+write) misses
system.cpu.icache.overall_misses::.cpu.inst       134488                       # number of overall misses
system.cpu.icache.overall_misses::total        134488                       # number of overall misses
system.cpu.icache.demand_miss_latency::.cpu.inst   2368156820                       # number of demand (read+write) miss cycles
system.cpu.icache.demand_miss_latency::total   2368156820                       # number of demand (read+write) miss cycles
system.cpu.icache.overall_miss_latency::.cpu.inst   2368156820                       # number of overall miss cycles
system.cpu.icache.overall_miss_latency::total   2368156820                       # number of overall miss cycles
system.cpu.icache.demand_accesses::.cpu.inst     27762407                       # number of demand (read+write) accesses
system.cpu.icache.demand_accesses::total     27762407                       # number of demand (read+write) accesses
system.cpu.icache.overall_accesses::.cpu.inst     27762407                       # number of overall (read+write) accesses
system.cpu.icache.overall_accesses::total     27762407                       # number of overall (read+write) accesses
system.cpu.icache.demand_miss_rate::.cpu.inst     0.004844                       # miss rate for demand accesses
system.cpu.icache.demand_miss_rate::total     0.004844                       # miss rate for demand accesses
system.cpu.icache.overall_miss_rate::.cpu.inst     0.004844                       # miss rate for overall accesses
system.cpu.icache.overall_miss_rate::total     0.004844                       # miss rate for overall accesses
system.cpu.icache.demand_avg_miss_latency::.cpu.inst 17608.684938                       # average overall miss latency
system.cpu.icache.demand_avg_miss_latency::total 17608.684938                       # average overall miss latency
system.cpu.icache.overall_avg_miss_latency::.cpu.inst 17608.684938                       # average overall miss latency
system.cpu.icache.overall_avg_miss_latency::total 17608.684938                       # average overall miss latency
system.cpu.icache.blocked_cycles::no_mshrs            0                       # number of cycles access was blocked
system.cpu.icache.blocked_cycles::no_targets            0                       # number of cycles access was blocked
system.cpu.icache.blocked::no_mshrs                 0                       # number of cycles access was blocked
system.cpu.icache.blocked::no_targets               0                       # number of cycles access was blocked
system.cpu.icache.avg_blocked_cycles::no_mshrs          nan                       # average number of cycles each access was blocked
system.cpu.icache.avg_blocked_cycles::no_targets          nan                       # average number of cycles each access was blocked
system.cpu.icache.writebacks::.writebacks       134097                       # number of writebacks
system.cpu.icache.writebacks::total            134097                       # number of writebacks
system.cpu.icache.demand_mshr_misses::.cpu.inst       134488                       # number of demand (read+write) MSHR misses
system.cpu.icache.demand_mshr_misses::total       134488                       # number of demand (read+write) MSHR misses
system.cpu.icache.overall_mshr_misses::.cpu.inst       134488                       # number of overall MSHR misses
system.cpu.icache.overall_mshr_misses::total       134488                       # number of overall MSHR misses
system.cpu.icache.demand_mshr_miss_latency::.cpu.inst   2188749828                       # number of demand (read+write) MSHR miss cycles
system.cpu.icache.demand_mshr_miss_latency::total   2188749828                       # number of demand (read+write) MSHR miss cycles
system.cpu.icache.overall_mshr_miss_latency::.cpu.inst   2188749828                       # number of overall MSHR miss cycles
system.cpu.icache.overall_mshr_miss_latency::total   2188749828                       # number of overall MSHR miss cycles
system.cpu.icache.demand_mshr_miss_rate::.cpu.inst     0.004844                       # mshr miss rate for demand accesses
system.cpu.icache.demand_mshr_miss_rate::total     0.004844                       # mshr miss rate for demand accesses
system.cpu.icache.overall_mshr_miss_rate::.cpu.inst     0.004844                       # mshr miss rate for overall accesses
system.cpu.icache.overall_mshr_miss_rate::total     0.004844                       # mshr miss rate for overall accesses
system.cpu.icache.demand_avg_mshr_miss_latency::.cpu.inst 16274.684938                       # average overall mshr miss latency
system.cpu.icache.demand_avg_mshr_miss_latency::total 16274.684938                       # average overall mshr miss latency
system.cpu.icache.overall_avg_mshr_miss_latency::.cpu.inst 16274.684938                       # average overall mshr miss latency
system.cpu.icache.overall_avg_mshr_miss_latency::total 16274.684938                       # average overall mshr miss latency
system.cpu.icache.replacements                 134097                       # number of replacements
system.cpu.icache.ReadReq_hits::.cpu.inst     27627919                       # number of ReadReq hits
system.cpu.icache.ReadReq_hits::total        27627919                       # number of ReadReq hits
system.cpu.icache.ReadReq_misses::.cpu.inst       134488                       # number of ReadReq misses
system.cpu.icache.ReadReq_misses::total        134488                       # number of ReadReq misses
system.cpu.icache.ReadReq_miss_latency::.cpu.inst   2368156820                       # number of ReadReq miss cycles
system.cpu.icache.ReadReq_miss_latency::total   2368156820                       # number of ReadReq miss cycles
system.cpu.icache.ReadReq_accesses::.cpu.inst     27762407                       # number of ReadReq accesses(hits+misses)
system.cpu.icache.ReadReq_accesses::total     27762407                       # number of ReadReq accesses(hits+misses)
system.cpu.icache.ReadReq_miss_rate::.cpu.inst     0.004844                       # miss rate for ReadReq accesses
system.cpu.icache.ReadReq_miss_rate::total     0.004844                       # miss rate for ReadReq accesses
system.cpu.icache.ReadReq_avg_miss_latency::.cpu.inst 17608.684938                       # average ReadReq miss latency
system.cpu.icache.ReadReq_avg_miss_latency::total 17608.684938                       # average ReadReq miss latency
system.cpu.icache.ReadReq_mshr_misses::.cpu.inst       134488                       # number of ReadReq MSHR misses
system.cpu.icache.ReadReq_mshr_misses::total       134488                       # number of ReadReq MSHR misses
system.cpu.icache.ReadReq_mshr_miss_latency::.cpu.inst   2188749828                       # number of ReadReq MSHR miss cycles
system.cpu.icache.ReadReq_mshr_miss_latency::total   2188749828                       # number of ReadReq MSHR miss cycles
system.cpu.icache.ReadReq_mshr_miss_rate::.cpu.inst     0.004844                       # mshr miss rate for ReadReq accesses
system.cpu.icache.ReadReq_mshr_miss_rate::total     0.004844                       # mshr miss rate for ReadReq accesses
system.cpu.icache.ReadReq_avg_mshr_miss_latency::.cpu.inst 16274.684938                       # average ReadReq mshr miss latency
system.cpu.icache.ReadReq_avg_mshr_miss_latency::total 16274.684938                       # average ReadReq mshr miss latency
system.cpu.icache.power_state.pwrStateResidencyTicks::UNDEFINED  77213296021                       # Cumulative time (in ticks) in various power states
system.cpu.icache.tags.tagsinuse           390.519619                       # Cycle average of tags in use
system.cpu.icache.tags.total_refs            27762407                       # Total number of references to valid blocks.
system.cpu.icache.tags.sampled_refs            134488                       # Sample count of references to valid blocks.
system.cpu.icache.tags.avg_refs            206.430366                       # Average number of references to valid blocks.
system.cpu.icache.tags.warmup_cycle             94047                       # Cycle when the warmup percentage was hit.
system.cpu.icache.tags.occ_blocks::.cpu.inst   390.519619                       # Average occupied blocks per requestor
system.cpu.icache.tags.occ_percent::.cpu.inst     0.762734                       # Average percentage of cache occupancy
system.cpu.icache.tags.occ_percent::total     0.762734                       # Average percentage of cache occupancy
system.cpu.icache.tags.occ_task_id_blocks::1024          391                       # Occupied blocks per task id
system.cpu.icache.tags.age_task_id_blocks_1024::0            2                       # Occupied blocks per task id
system.cpu.icache.tags.age_task_id_blocks_1024::2            4                       # Occupied blocks per task id
system.cpu.icache.tags.age_task_id_blocks_1024::4          385                       # Occupied blocks per task id
system.cpu.icache.tags.occ_task_id_percent::1024     0.763672                       # Percentage of cache occupancy per task id
system.cpu.icache.tags.tag_accesses          55659302                       # Number of tag accesses
system.cpu.icache.tags.data_accesses         55659302                       # Number of data accesses
system.cpu.icache.tags.power_state.pwrStateResidencyTicks::UNDEFINED  77213296021                       # Cumulative time (in ticks) in various power states
system.cpu.itb.instHits                             0                       # ITB inst hits
system.cpu.itb.instMisses                           0                       # ITB inst misses
system.cpu.itb.readHits                             0                       # DTB read hits
system.cpu.itb.readMisses                           0                       # DTB read misses
system.cpu.itb.writeHits                            0                       # DTB write hits
system.cpu.itb.writeMisses                          0                       # DTB write misses
system.cpu.itb.inserts                              0                       # Number of times an entry is inserted into the TLB
system.cpu.itb.flushTlb                             0                       # Number of times complete TLB was flushed
system.cpu.itb.flushTlbMva                          0                       # Number of times TLB was flushed by MVA
system.cpu.itb.flushTlbMvaAsid                      0                       # Number of times TLB was flushed by MVA & ASID
system.cpu.itb.flushTlbAsid                         0                       # Number of times TLB was flushed by ASID
system.cpu.itb.flushedEntries                       0                       # Number of entries that have been flushed from TLB
system.cpu.itb.alignFaults                          0                       # Number of TLB faults due to alignment restrictions
system.cpu.itb.prefetchFaults                       0                       # Number of TLB faults due to prefetch
system.cpu.itb.domainFaults                         0                       # Number of TLB faults due to domain restrictions
system.cpu.itb.permsFaults                          0                       # Number of TLB faults due to permissions restrictions
system.cpu.itb.readAccesses                         0                       # DTB read accesses
system.cpu.itb.writeAccesses                        0                       # DTB write accesses
system.cpu.itb.instAccesses                         0                       # ITB inst accesses
system.cpu.itb.hits                                 0                       # Total TLB (inst and data) hits
system.cpu.itb.misses                               0                       # Total TLB (inst and data) misses
system.cpu.itb.accesses                             0                       # Total TLB (inst and data) accesses
system.cpu.itb.stage2_mmu.stage2_tlb.instHits            0                       # ITB inst hits
system.cpu.itb.stage2_mmu.stage2_tlb.instMisses            0                       # ITB inst misses
system.cpu.itb.stage2_mmu.stage2_tlb.readHits            0                       # DTB read hits
system.cpu.itb.stage2_mmu.stage2_tlb.readMisses            0                       # DTB read misses
system.cpu.itb.stage2_mmu.stage2_tlb.writeHits            0                       # DTB write hits
system.cpu.itb.stage2_mmu.stage2_tlb.writeMisses            0                       # DTB write misses
system.cpu.itb.stage2_mmu.stage2_tlb.inserts            0                       # Number of times an entry is inserted into the TLB
system.cpu.itb.stage2_mmu.stage2_tlb.flushTlb            0                       # Number of times complete TLB was flushed
system.cpu.itb.stage2_mmu.stage2_tlb.flushTlbMva            0                       # Number of times TLB was flushed by MVA
system.cpu.itb.stage2_mmu.stage2_tlb.flushTlbMvaAsid            0                       # Number of times TLB was flushed by MVA & ASID
system.cpu.itb.stage2_mmu.stage2_tlb.flushTlbAsid            0                       # Number of times TLB was flushed by ASID
system.cpu.itb.stage2_mmu.stage2_tlb.flushedEntries            0                       # Number of entries that have been flushed from TLB
system.cpu.itb.stage2_mmu.stage2_tlb.alignFaults            0                       # Number of TLB faults due to alignment restrictions
system.cpu.itb.stage2_mmu.stage2_tlb.prefetchFaults            0                       # Number of TLB faults due to prefetch
system.cpu.itb.stage2_mmu.stage2_tlb.domainFaults            0                       # Number of TLB faults due to domain restrictions
system.cpu.itb.stage2_mmu.stage2_tlb.permsFaults            0                       # Number of TLB faults due to permissions restrictions
system.cpu.itb.stage2_mmu.stage2_tlb.readAccesses            0                       # DTB read accesses
system.cpu.itb.stage2_mmu.stage2_tlb.writeAccesses            0                       # DTB write accesses
system.cpu.itb.stage2_mmu.stage2_tlb.instAccesses            0                       # ITB inst accesses
system.cpu.itb.stage2_mmu.stage2_tlb.hits            0                       # Total TLB (inst and data) hits
system.cpu.itb.stage2_mmu.stage2_tlb.misses            0                       # Total TLB (inst and data) misses
system.cpu.itb.stage2_mmu.stage2_tlb.accesses            0                       # Total TLB (inst and data) accesses
system.cpu.itb.stage2_mmu.stage2_tlb.walker.walks            0                       # Table walker walks requested
system.cpu.itb.stage2_mmu.stage2_tlb.walker.requestOrigin_Requested::Data            0                       # Table walker requests started/completed, data/inst
system.cpu.itb.stage2_mmu.stage2_tlb.walker.requestOrigin_Requested::Inst            0                       # Table walker requests started/completed, data/inst
system.cpu.itb.stage2_mmu.stage2_tlb.walker.requestOrigin_Requested::total            0                       # Table walker requests started/completed, data/inst
system.cpu.itb.stage2_mmu.stage2_tlb.walker.requestOrigin_Completed::Data            0                       # Table walker requests started/completed, data/inst
system.cpu.itb.stage2_mmu.stage2_tlb.walker.requestOrigin_Completed::Inst            0                       # Table walker requests started/completed, data/inst
system.cpu.itb.stage2_mmu.stage2_tlb.walker.requestOrigin_Completed::total            0                       # Table walker requests started/completed, data/inst
system.cpu.itb.stage2_mmu.stage2_tlb.walker.requestOrigin::total            0                       # Table walker requests started/completed, data/inst
system.cpu.itb.stage2_mmu.stage2_tlb.walker.power_state.pwrStateResidencyTicks::UNDEFINED  77213296021                       # Cumulative time (in ticks) in various power states
system.cpu.itb.walker.walks                         0                       # Table walker walks requested
system.cpu.itb.walker.requestOrigin_Requested::Data            0                       # Table walker requests started/completed, data/inst
system.cpu.itb.walker.requestOrigin_Requested::Inst            0                       # Table walker requests started/completed, data/inst
system.cpu.itb.walker.requestOrigin_Requested::total            0                       # Table walker requests started/completed, data/inst
system.cpu.itb.walker.requestOrigin_Completed::Data            0                       # Table walker requests started/completed, data/inst
system.cpu.itb.walker.requestOrigin_Completed::Inst            0                       # Table walker requests started/completed, data/inst
system.cpu.itb.walker.requestOrigin_Completed::total            0                       # Table walker requests started/completed, data/inst
system.cpu.itb.walker.requestOrigin::total            0                       # Table walker requests started/completed, data/inst
system.cpu.itb.walker.power_state.pwrStateResidencyTicks::UNDEFINED  77213296021                       # Cumulative time (in ticks) in various power states
system.cpu.power_state.pwrStateResidencyTicks::ON  77213296021                       # Cumulative time (in ticks) in various power states
system.cpu.thread_0.numInsts                100000000                       # Number of Instructions committed
system.cpu.thread_0.numOps                  109423148                       # Number of Ops committed
system.cpu.thread_0.numMemRefs                      0                       # Number of Memory References
system.cpu_clk_domain.clock                       667                       # Clock period in ticks
system.cpu_voltage_domain.voltage                   1                       # Voltage in Volts
system.l2.demand_hits::.cpu.inst               133973                       # number of demand (read+write) hits
system.l2.demand_hits::.cpu.data                17088                       # number of demand (read+write) hits
system.l2.demand_hits::total                   151061                       # number of demand (read+write) hits
system.l2.overall_hits::.cpu.inst              133973                       # number of overall hits
system.l2.overall_hits::.cpu.data               17088                       # number of overall hits
system.l2.overall_hits::total                  151061                       # number of overall hits
system.l2.demand_misses::.cpu.inst                515                       # number of demand (read+write) misses
system.l2.demand_misses::.cpu.data              39026                       # number of demand (read+write) misses
system.l2.demand_misses::total                  39541                       # number of demand (read+write) misses
system.l2.overall_misses::.cpu.inst               515                       # number of overall misses
system.l2.overall_misses::.cpu.data             39026                       # number of overall misses
system.l2.overall_misses::total                 39541                       # number of overall misses
system.l2.demand_miss_latency::.cpu.inst     43060853                       # number of demand (read+write) miss cycles
system.l2.demand_miss_latency::.cpu.data   3334139570                       # number of demand (read+write) miss cycles
system.l2.demand_miss_latency::total       3377200423                       # number of demand (read+write) miss cycles
system.l2.overall_miss_latency::.cpu.inst     43060853                       # number of overall miss cycles
system.l2.overall_miss_latency::.cpu.data   3334139570                       # number of overall miss cycles
system.l2.overall_miss_latency::total      3377200423                       # number of overall miss cycles
system.l2.demand_accesses::.cpu.inst           134488                       # number of demand (read+write) accesses
system.l2.demand_accesses::.cpu.data            56114                       # number of demand (read+write) accesses
system.l2.demand_accesses::total               190602                       # number of demand (read+write) accesses
system.l2.overall_accesses::.cpu.inst          134488                       # number of overall (read+write) accesses
system.l2.overall_accesses::.cpu.data           56114                       # number of overall (read+write) accesses
system.l2.overall_accesses::total              190602                       # number of overall (read+write) accesses
system.l2.demand_miss_rate::.cpu.inst        0.003829                       # miss rate for demand accesses
system.l2.demand_miss_rate::.cpu.data        0.695477                       # miss rate for demand accesses
system.l2.demand_miss_rate::total            0.207453                       # miss rate for demand accesses
system.l2.overall_miss_rate::.cpu.inst       0.003829                       # miss rate for overall accesses
system.l2.overall_miss_rate::.cpu.data       0.695477                       # miss rate for overall accesses
system.l2.overall_miss_rate::total           0.207453                       # miss rate for overall accesses
system.l2.demand_avg_miss_latency::.cpu.inst 83613.306796                       # average overall miss latency
system.l2.demand_avg_miss_latency::.cpu.data 85433.802337                       # average overall miss latency
system.l2.demand_avg_miss_latency::total 85410.091374                       # average overall miss latency
system.l2.overall_avg_miss_latency::.cpu.inst 83613.306796                       # average overall miss latency
system.l2.overall_avg_miss_latency::.cpu.data 85433.802337                       # average overall miss latency
system.l2.overall_avg_miss_latency::total 85410.091374                       # average overall miss latency
system.l2.blocked_cycles::no_mshrs                  0                       # number of cycles access was blocked
system.l2.blocked_cycles::no_targets                0                       # number of cycles access was blocked
system.l2.blocked::no_mshrs                         0                       # number of cycles access was blocked
system.l2.blocked::no_targets                       0                       # number of cycles access was blocked
system.l2.avg_blocked_cycles::no_mshrs            nan                       # average number of cycles each access was blocked
system.l2.avg_blocked_cycles::no_targets          nan                       # average number of cycles each access was blocked
system.l2.demand_mshr_hits::.cpu.data               4                       # number of demand (read+write) MSHR hits
system.l2.demand_mshr_hits::total                   4                       # number of demand (read+write) MSHR hits
system.l2.overall_mshr_hits::.cpu.data              4                       # number of overall MSHR hits
system.l2.overall_mshr_hits::total                  4                       # number of overall MSHR hits
system.l2.demand_mshr_misses::.cpu.inst           515                       # number of demand (read+write) MSHR misses
system.l2.demand_mshr_misses::.cpu.data         39022                       # number of demand (read+write) MSHR misses
system.l2.demand_mshr_misses::total             39537                       # number of demand (read+write) MSHR misses
system.l2.overall_mshr_misses::.cpu.inst          515                       # number of overall MSHR misses
system.l2.overall_mshr_misses::.cpu.data        39022                       # number of overall MSHR misses
system.l2.overall_mshr_misses::total            39537                       # number of overall MSHR misses
system.l2.demand_mshr_miss_latency::.cpu.inst     36037739                       # number of demand (read+write) MSHR miss cycles
system.l2.demand_mshr_miss_latency::.cpu.data   2802128264                       # number of demand (read+write) MSHR miss cycles
system.l2.demand_mshr_miss_latency::total   2838166003                       # number of demand (read+write) MSHR miss cycles
system.l2.overall_mshr_miss_latency::.cpu.inst     36037739                       # number of overall MSHR miss cycles
system.l2.overall_mshr_miss_latency::.cpu.data   2802128264                       # number of overall MSHR miss cycles
system.l2.overall_mshr_miss_latency::total   2838166003                       # number of overall MSHR miss cycles
system.l2.demand_mshr_miss_rate::.cpu.inst     0.003829                       # mshr miss rate for demand accesses
system.l2.demand_mshr_miss_rate::.cpu.data     0.695406                       # mshr miss rate for demand accesses
system.l2.demand_mshr_miss_rate::total       0.207432                       # mshr miss rate for demand accesses
system.l2.overall_mshr_miss_rate::.cpu.inst     0.003829                       # mshr miss rate for overall accesses
system.l2.overall_mshr_miss_rate::.cpu.data     0.695406                       # mshr miss rate for overall accesses
system.l2.overall_mshr_miss_rate::total      0.207432                       # mshr miss rate for overall accesses
system.l2.demand_avg_mshr_miss_latency::.cpu.inst 69976.192233                       # average overall mshr miss latency
system.l2.demand_avg_mshr_miss_latency::.cpu.data 71808.935062                       # average overall mshr miss latency
system.l2.demand_avg_mshr_miss_latency::total 71785.062170                       # average overall mshr miss latency
system.l2.overall_avg_mshr_miss_latency::.cpu.inst 69976.192233                       # average overall mshr miss latency
system.l2.overall_avg_mshr_miss_latency::.cpu.data 71808.935062                       # average overall mshr miss latency
system.l2.overall_avg_mshr_miss_latency::total 71785.062170                       # average overall mshr miss latency
system.l2.replacements                              0                       # number of replacements
system.l2.WritebackDirty_hits::.writebacks        51233                       # number of WritebackDirty hits
system.l2.WritebackDirty_hits::total            51233                       # number of WritebackDirty hits
system.l2.WritebackDirty_accesses::.writebacks        51233                       # number of WritebackDirty accesses(hits+misses)
system.l2.WritebackDirty_accesses::total        51233                       # number of WritebackDirty accesses(hits+misses)
system.l2.WritebackClean_hits::.writebacks       134086                       # number of WritebackClean hits
system.l2.WritebackClean_hits::total           134086                       # number of WritebackClean hits
system.l2.WritebackClean_accesses::.writebacks       134086                       # number of WritebackClean accesses(hits+misses)
system.l2.WritebackClean_accesses::total       134086                       # number of WritebackClean accesses(hits+misses)
system.l2.ReadExReq_hits::.cpu.data               171                       # number of ReadExReq hits
system.l2.ReadExReq_hits::total                   171                       # number of ReadExReq hits
system.l2.ReadExReq_misses::.cpu.data           38792                       # number of ReadExReq misses
system.l2.ReadExReq_misses::total               38792                       # number of ReadExReq misses
system.l2.ReadExReq_miss_latency::.cpu.data   3312105892                       # number of ReadExReq miss cycles
system.l2.ReadExReq_miss_latency::total    3312105892                       # number of ReadExReq miss cycles
system.l2.ReadExReq_accesses::.cpu.data         38963                       # number of ReadExReq accesses(hits+misses)
system.l2.ReadExReq_accesses::total             38963                       # number of ReadExReq accesses(hits+misses)
system.l2.ReadExReq_miss_rate::.cpu.data     0.995611                       # miss rate for ReadExReq accesses
system.l2.ReadExReq_miss_rate::total         0.995611                       # miss rate for ReadExReq accesses
system.l2.ReadExReq_avg_miss_latency::.cpu.data 85381.158280                       # average ReadExReq miss latency
system.l2.ReadExReq_avg_miss_latency::total 85381.158280                       # average ReadExReq miss latency
system.l2.ReadExReq_mshr_misses::.cpu.data        38792                       # number of ReadExReq MSHR misses
system.l2.ReadExReq_mshr_misses::total          38792                       # number of ReadExReq MSHR misses
system.l2.ReadExReq_mshr_miss_latency::.cpu.data   2783520584                       # number of ReadExReq MSHR miss cycles
system.l2.ReadExReq_mshr_miss_latency::total   2783520584                       # number of ReadExReq MSHR miss cycles
system.l2.ReadExReq_mshr_miss_rate::.cpu.data     0.995611                       # mshr miss rate for ReadExReq accesses
system.l2.ReadExReq_mshr_miss_rate::total     0.995611                       # mshr miss rate for ReadExReq accesses
system.l2.ReadExReq_avg_mshr_miss_latency::.cpu.data 71755.016086                       # average ReadExReq mshr miss latency
system.l2.ReadExReq_avg_mshr_miss_latency::total 71755.016086                       # average ReadExReq mshr miss latency
system.l2.ReadCleanReq_hits::.cpu.inst         133973                       # number of ReadCleanReq hits
system.l2.ReadCleanReq_hits::total             133973                       # number of ReadCleanReq hits
system.l2.ReadCleanReq_misses::.cpu.inst          515                       # number of ReadCleanReq misses
system.l2.ReadCleanReq_misses::total              515                       # number of ReadCleanReq misses
system.l2.ReadCleanReq_miss_latency::.cpu.inst     43060853                       # number of ReadCleanReq miss cycles
system.l2.ReadCleanReq_miss_latency::total     43060853                       # number of ReadCleanReq miss cycles
system.l2.ReadCleanReq_accesses::.cpu.inst       134488                       # number of ReadCleanReq accesses(hits+misses)
system.l2.ReadCleanReq_accesses::total         134488                       # number of ReadCleanReq accesses(hits+misses)
system.l2.ReadCleanReq_miss_rate::.cpu.inst     0.003829                       # miss rate for ReadCleanReq accesses
system.l2.ReadCleanReq_miss_rate::total      0.003829                       # miss rate for ReadCleanReq accesses
system.l2.ReadCleanReq_avg_miss_latency::.cpu.inst 83613.306796                       # average ReadCleanReq miss latency
system.l2.ReadCleanReq_avg_miss_latency::total 83613.306796                       # average ReadCleanReq miss latency
system.l2.ReadCleanReq_mshr_misses::.cpu.inst          515                       # number of ReadCleanReq MSHR misses
system.l2.ReadCleanReq_mshr_misses::total          515                       # number of ReadCleanReq MSHR misses
system.l2.ReadCleanReq_mshr_miss_latency::.cpu.inst     36037739                       # number of ReadCleanReq MSHR miss cycles
system.l2.ReadCleanReq_mshr_miss_latency::total     36037739                       # number of ReadCleanReq MSHR miss cycles
system.l2.ReadCleanReq_mshr_miss_rate::.cpu.inst     0.003829                       # mshr miss rate for ReadCleanReq accesses
system.l2.ReadCleanReq_mshr_miss_rate::total     0.003829                       # mshr miss rate for ReadCleanReq accesses
system.l2.ReadCleanReq_avg_mshr_miss_latency::.cpu.inst 69976.192233                       # average ReadCleanReq mshr miss latency
system.l2.ReadCleanReq_avg_mshr_miss_latency::total 69976.192233                       # average ReadCleanReq mshr miss latency
system.l2.ReadSharedReq_hits::.cpu.data         16917                       # number of ReadSharedReq hits
system.l2.ReadSharedReq_hits::total             16917                       # number of ReadSharedReq hits
system.l2.ReadSharedReq_misses::.cpu.data          234                       # number of ReadSharedReq misses
system.l2.ReadSharedReq_misses::total             234                       # number of ReadSharedReq misses
system.l2.ReadSharedReq_miss_latency::.cpu.data     22033678                       # number of ReadSharedReq miss cycles
system.l2.ReadSharedReq_miss_latency::total     22033678                       # number of ReadSharedReq miss cycles
system.l2.ReadSharedReq_accesses::.cpu.data        17151                       # number of ReadSharedReq accesses(hits+misses)
system.l2.ReadSharedReq_accesses::total         17151                       # number of ReadSharedReq accesses(hits+misses)
system.l2.ReadSharedReq_miss_rate::.cpu.data     0.013644                       # miss rate for ReadSharedReq accesses
system.l2.ReadSharedReq_miss_rate::total     0.013644                       # miss rate for ReadSharedReq accesses
system.l2.ReadSharedReq_avg_miss_latency::.cpu.data 94161.017094                       # average ReadSharedReq miss latency
system.l2.ReadSharedReq_avg_miss_latency::total 94161.017094                       # average ReadSharedReq miss latency
system.l2.ReadSharedReq_mshr_hits::.cpu.data            4                       # number of ReadSharedReq MSHR hits
system.l2.ReadSharedReq_mshr_hits::total            4                       # number of ReadSharedReq MSHR hits
system.l2.ReadSharedReq_mshr_misses::.cpu.data          230                       # number of ReadSharedReq MSHR misses
system.l2.ReadSharedReq_mshr_misses::total          230                       # number of ReadSharedReq MSHR misses
system.l2.ReadSharedReq_mshr_miss_latency::.cpu.data     18607680                       # number of ReadSharedReq MSHR miss cycles
system.l2.ReadSharedReq_mshr_miss_latency::total     18607680                       # number of ReadSharedReq MSHR miss cycles
system.l2.ReadSharedReq_mshr_miss_rate::.cpu.data     0.013410                       # mshr miss rate for ReadSharedReq accesses
system.l2.ReadSharedReq_mshr_miss_rate::total     0.013410                       # mshr miss rate for ReadSharedReq accesses
system.l2.ReadSharedReq_avg_mshr_miss_latency::.cpu.data 80902.956522                       # average ReadSharedReq mshr miss latency
system.l2.ReadSharedReq_avg_mshr_miss_latency::total 80902.956522                       # average ReadSharedReq mshr miss latency
system.l2.power_state.pwrStateResidencyTicks::UNDEFINED  77213296021                       # Cumulative time (in ticks) in various power states
system.l2.tags.tagsinuse                 27420.059806                       # Cycle average of tags in use
system.l2.tags.total_refs                      379453                       # Total number of references to valid blocks.
system.l2.tags.sampled_refs                     39537                       # Sample count of references to valid blocks.
system.l2.tags.avg_refs                      9.597415                       # Average number of references to valid blocks.
system.l2.tags.warmup_cycle                     80000                       # Cycle when the warmup percentage was hit.
system.l2.tags.occ_blocks::.cpu.inst       513.657429                       # Average occupied blocks per requestor
system.l2.tags.occ_blocks::.cpu.data     26906.402377                       # Average occupied blocks per requestor
system.l2.tags.occ_percent::.cpu.inst        0.007838                       # Average percentage of cache occupancy
system.l2.tags.occ_percent::.cpu.data        0.410559                       # Average percentage of cache occupancy
system.l2.tags.occ_percent::total            0.418397                       # Average percentage of cache occupancy
system.l2.tags.occ_task_id_blocks::1024         39537                       # Occupied blocks per task id
system.l2.tags.age_task_id_blocks_1024::0            3                       # Occupied blocks per task id
system.l2.tags.age_task_id_blocks_1024::1           26                       # Occupied blocks per task id
system.l2.tags.age_task_id_blocks_1024::2          255                       # Occupied blocks per task id
system.l2.tags.age_task_id_blocks_1024::3         2549                       # Occupied blocks per task id
system.l2.tags.age_task_id_blocks_1024::4        36704                       # Occupied blocks per task id
system.l2.tags.occ_task_id_percent::1024     0.603287                       # Percentage of cache occupancy per task id
system.l2.tags.tag_accesses                   3075193                       # Number of tag accesses
system.l2.tags.data_accesses                  3075193                       # Number of data accesses
system.l2.tags.power_state.pwrStateResidencyTicks::UNDEFINED  77213296021                       # Cumulative time (in ticks) in various power states
system.mem_ctrls.avgPriority_.cpu.inst::samples       515.00                       # Average QoS priority value for accepted requests
system.mem_ctrls.avgPriority_.cpu.data::samples     39022.00                       # Average QoS priority value for accepted requests
system.mem_ctrls.priorityMinLatency      0.000000018750                       # per QoS priority minimum request to response latency (s)
system.mem_ctrls.priorityMaxLatency      0.000000578696                       # per QoS priority maximum request to response latency (s)
system.mem_ctrls.numReadWriteTurnArounds            0                       # Number of turnarounds from READ to WRITE
system.mem_ctrls.numWriteReadTurnArounds            0                       # Number of turnarounds from WRITE to READ
system.mem_ctrls.numStayReadState               98900                       # Number of times bus staying in READ state
system.mem_ctrls.numStayWriteState                  0                       # Number of times bus staying in WRITE state
system.mem_ctrls.readReqs                       39537                       # Number of read requests accepted
system.mem_ctrls.writeReqs                          0                       # Number of write requests accepted
system.mem_ctrls.readBursts                     39537                       # Number of controller read bursts, including those serviced by the write queue
system.mem_ctrls.writeBursts                        0                       # Number of controller write bursts, including those merged in the write queue
system.mem_ctrls.servicedByWrQ                      0                       # Number of controller read bursts serviced by the write queue
system.mem_ctrls.mergedWrBursts                     0                       # Number of controller write bursts merged with an existing one
system.mem_ctrls.neitherReadNorWriteReqs            0                       # Number of requests that are neither read nor write
system.mem_ctrls.avgRdQLen                       1.00                       # Average read queue length when enqueuing
system.mem_ctrls.avgWrQLen                       0.00                       # Average write queue length when enqueuing
system.mem_ctrls.numRdRetry                         0                       # Number of times read queue was full causing retry
system.mem_ctrls.numWrRetry                         0                       # Number of times write queue was full causing retry
system.mem_ctrls.readPktSize::0                     0                       # Read request sizes (log2)
system.mem_ctrls.readPktSize::1                     0                       # Read request sizes (log2)
system.mem_ctrls.readPktSize::2                     0                       # Read request sizes (log2)
system.mem_ctrls.readPktSize::3                     0                       # Read request sizes (log2)
system.mem_ctrls.readPktSize::4                     0                       # Read request sizes (log2)
system.mem_ctrls.readPktSize::5                     0                       # Read request sizes (log2)
system.mem_ctrls.readPktSize::6                 39537                       # Read request sizes (log2)
system.mem_ctrls.writePktSize::0                    0                       # Write request sizes (log2)
system.mem_ctrls.writePktSize::1                    0                       # Write request sizes (log2)
system.mem_ctrls.writePktSize::2                    0                       # Write request sizes (log2)
system.mem_ctrls.writePktSize::3                    0                       # Write request sizes (log2)
system.mem_ctrls.writePktSize::4                    0                       # Write request sizes (log2)
system.mem_ctrls.writePktSize::5                    0                       # Write request sizes (log2)
system.mem_ctrls.writePktSize::6                    0                       # Write request sizes (log2)
system.mem_ctrls.rdQLenPdf::0                   39446                       # What read queue length does an incoming req see
system.mem_ctrls.rdQLenPdf::1                      86                       # What read queue length does an incoming req see
system.mem_ctrls.rdQLenPdf::2                       5                       # What read queue length does an incoming req see
system.mem_ctrls.rdQLenPdf::3                       0                       # What read queue length does an incoming req see
system.mem_ctrls.rdQLenPdf::4                       0                       # What read queue length does an incoming req see
system.mem_ctrls.rdQLenPdf::5                       0                       # What read queue length does an incoming req see
system.mem_ctrls.rdQLenPdf::6                       0                       # What read queue length does an incoming req see
system.mem_ctrls.rdQLenPdf::7                       0                       # What read queue length does an incoming req see
system.mem_ctrls.rdQLenPdf::8                       0                       # What read queue length does an incoming req see
system.mem_ctrls.rdQLenPdf::9                       0                       # What read queue length does an incoming req see
system.mem_ctrls.rdQLenPdf::10                      0                       # What read queue length does an incoming req see
system.mem_ctrls.rdQLenPdf::11                      0                       # What read queue length does an incoming req see
system.mem_ctrls.rdQLenPdf::12                      0                       # What read queue length does an incoming req see
system.mem_ctrls.rdQLenPdf::13                      0                       # What read queue length does an incoming req see
[...]
system.mem_ctrls.dram.bw_read::.cpu.data     32344274                       # Total read bandwidth from this memory (bytes/s)
system.mem_ctrls.dram.bw_read::total         32771143                       # Total read bandwidth from this memory (bytes/s)
system.mem_ctrls.dram.bw_inst_read::.cpu.inst       426869                       # Instruction read bandwidth from this memory (bytes/s)
system.mem_ctrls.dram.bw_inst_read::total       426869                       # Instruction read bandwidth from this memory (bytes/s)
system.mem_ctrls.dram.bw_total::.cpu.inst       426869                       # Total bandwidth to/from this memory (bytes/s)
system.mem_ctrls.dram.bw_total::.cpu.data     32344274                       # Total bandwidth to/from this memory (bytes/s)
system.mem_ctrls.dram.bw_total::total        32771143                       # Total bandwidth to/from this memory (bytes/s)
system.mem_ctrls.dram.readBursts                39537                       # Number of DRAM read bursts
system.mem_ctrls.dram.writeBursts                   0                       # Number of DRAM write bursts
system.mem_ctrls.dram.perBankRdBursts::0         2494                       # Per bank write bursts
system.mem_ctrls.dram.perBankRdBursts::1         2492                       # Per bank write bursts
system.mem_ctrls.dram.perBankRdBursts::2         2461                       # Per bank write bursts
system.mem_ctrls.dram.perBankRdBursts::3         2521                       # Per bank write bursts
system.mem_ctrls.dram.perBankRdBursts::4         2470                       # Per bank write bursts
system.mem_ctrls.dram.perBankRdBursts::5         2434                       # Per bank write bursts
system.mem_ctrls.dram.perBankRdBursts::6         2369                       # Per bank write bursts
system.mem_ctrls.dram.perBankRdBursts::7         2440                       # Per bank write bursts
system.mem_ctrls.dram.perBankRdBursts::8         2457                       # Per bank write bursts
system.mem_ctrls.dram.perBankRdBursts::9         2483                       # Per bank write bursts
system.mem_ctrls.dram.perBankRdBursts::10         2470                       # Per bank write bursts
system.mem_ctrls.dram.perBankRdBursts::11         2499                       # Per bank write bursts
system.mem_ctrls.dram.perBankRdBursts::12         2485                       # Per bank write bursts
system.mem_ctrls.dram.perBankRdBursts::13         2456                       # Per bank write bursts
system.mem_ctrls.dram.perBankRdBursts::14         2494                       # Per bank write bursts
system.mem_ctrls.dram.perBankRdBursts::15         2512                       # Per bank write bursts
system.mem_ctrls.dram.perBankWrBursts::0            0                       # Per bank write bursts
system.mem_ctrls.dram.perBankWrBursts::1            0                       # Per bank write bursts
system.mem_ctrls.dram.perBankWrBursts::2            0                       # Per bank write bursts
system.mem_ctrls.dram.perBankWrBursts::3            0                       # Per bank write bursts
system.mem_ctrls.dram.perBankWrBursts::4            0                       # Per bank write bursts
system.mem_ctrls.dram.perBankWrBursts::5            0                       # Per bank write bursts
system.mem_ctrls.dram.perBankWrBursts::6            0                       # Per bank write bursts
system.mem_ctrls.dram.perBankWrBursts::7            0                       # Per bank write bursts
system.mem_ctrls.dram.perBankWrBursts::8            0                       # Per bank write bursts
system.mem_ctrls.dram.perBankWrBursts::9            0                       # Per bank write bursts
system.mem_ctrls.dram.perBankWrBursts::10            0                       # Per bank write bursts
system.mem_ctrls.dram.perBankWrBursts::11            0                       # Per bank write bursts
system.mem_ctrls.dram.perBankWrBursts::12            0                       # Per bank write bursts
system.mem_ctrls.dram.perBankWrBursts::13            0                       # Per bank write bursts
system.mem_ctrls.dram.perBankWrBursts::14            0                       # Per bank write bursts
system.mem_ctrls.dram.perBankWrBursts::15            0                       # Per bank write bursts
system.mem_ctrls.dram.totQLat               323279500                       # Total ticks spent queuing
system.mem_ctrls.dram.totBusLat             197685000                       # Total ticks spent in databus transfers
system.mem_ctrls.dram.totMemAccLat         1064598250                       # Total ticks spent from burst creation until serviced by the DRAM
system.mem_ctrls.dram.avgQLat                 8176.63                       # Average queueing delay per DRAM burst
system.mem_ctrls.dram.avgBusLat               5000.00                       # Average bus latency per DRAM burst
system.mem_ctrls.dram.avgMemAccLat           26926.63                       # Average memory access latency per DRAM burst
system.mem_ctrls.dram.readRowHits               27674                       # Number of row buffer hits during reads
system.mem_ctrls.dram.writeRowHits                  0                       # Number of row buffer hits during writes
system.mem_ctrls.dram.readRowHitRate            70.00                       # Row buffer hit rate for reads
system.mem_ctrls.dram.writeRowHitRate             nan                       # Row buffer hit rate for writes
system.mem_ctrls.dram.bytesPerActivate::samples        11862                       # Bytes accessed per row activation
system.mem_ctrls.dram.bytesPerActivate::mean   213.306356                       # Bytes accessed per row activation
system.mem_ctrls.dram.bytesPerActivate::gmean   176.766508                       # Bytes accessed per row activation
system.mem_ctrls.dram.bytesPerActivate::stdev   162.072692                       # Bytes accessed per row activation
system.mem_ctrls.dram.bytesPerActivate::0-127          383      3.23%      3.23% # Bytes accessed per row activation
system.mem_ctrls.dram.bytesPerActivate::128-255         8857     74.67%     77.90% # Bytes accessed per row activation
system.mem_ctrls.dram.bytesPerActivate::256-383          809      6.82%     84.72% # Bytes accessed per row activation
system.mem_ctrls.dram.bytesPerActivate::384-511          589      4.97%     89.68% # Bytes accessed per row activation
system.mem_ctrls.dram.bytesPerActivate::512-639          577      4.86%     94.55% # Bytes accessed per row activation
system.mem_ctrls.dram.bytesPerActivate::640-767          422      3.56%     98.10% # Bytes accessed per row activation
system.mem_ctrls.dram.bytesPerActivate::768-895          214      1.80%     99.91% # Bytes accessed per row activation
system.mem_ctrls.dram.bytesPerActivate::896-1023            2      0.02%     99.92% # Bytes accessed per row activation
system.mem_ctrls.dram.bytesPerActivate::1024-1151            9      0.08%    100.00% # Bytes accessed per row activation
system.mem_ctrls.dram.bytesPerActivate::total        11862                       # Bytes accessed per row activation
system.mem_ctrls.dram.bytesRead               2530368                       # Total number of bytes read from DRAM
system.mem_ctrls.dram.bytesWritten                  0                       # Total number of bytes written to DRAM
system.mem_ctrls.dram.avgRdBW               32.771143                       # Average DRAM read bandwidth in MiBytes/s
system.mem_ctrls.dram.avgWrBW                       0                       # Average DRAM write bandwidth in MiBytes/s
system.mem_ctrls.dram.peakBW                 12800.00                       # Theoretical peak bandwidth in MiByte/s
system.mem_ctrls.dram.busUtil                    0.26                       # Data bus utilization in percentage
system.mem_ctrls.dram.busUtilRead                0.26                       # Data bus utilization in percentage for reads
system.mem_ctrls.dram.busUtilWrite               0.00                       # Data bus utilization in percentage for writes
system.mem_ctrls.dram.pageHitRate               70.00                       # Row buffer hit rate, read and write combined
system.mem_ctrls.dram.power_state.pwrStateResidencyTicks::UNDEFINED  77213296021                       # Cumulative time (in ticks) in various power states
system.mem_ctrls.dram.rank0.actEnergy        43211280                       # Energy for activate commands per rank (pJ)
system.mem_ctrls.dram.rank0.preEnergy        22963545                       # Energy for precharge commands per rank (pJ)
system.mem_ctrls.dram.rank0.readEnergy      140522340                       # Energy for read commands per rank (pJ)
system.mem_ctrls.dram.rank0.writeEnergy             0                       # Energy for write commands per rank (pJ)
system.mem_ctrls.dram.rank0.refreshEnergy 6094770240.000001                       # Energy for refresh commands per rank (pJ)
system.mem_ctrls.dram.rank0.actBackEnergy  15569161260                       # Energy for active background per rank (pJ)
system.mem_ctrls.dram.rank0.preBackEnergy  16539033120                       # Energy for precharge background per rank (pJ)
system.mem_ctrls.dram.rank0.actPowerDownEnergy            0                       # Energy for active power-down per rank (pJ)
system.mem_ctrls.dram.rank0.prePowerDownEnergy            0                       # Energy for precharge power-down per rank (pJ)
system.mem_ctrls.dram.rank0.selfRefreshEnergy            0                       # Energy for self refresh per rank (pJ)
system.mem_ctrls.dram.rank0.totalEnergy   38409661785                       # Total energy per rank (pJ)
system.mem_ctrls.dram.rank0.averagePower   497.448804                       # Core power per rank (mW)
system.mem_ctrls.dram.rank0.totalIdleTime            0                       # Total Idle time Per DRAM Rank
system.mem_ctrls.dram.rank0.pwrStateTime::IDLE  42859546261                       # Time in different power states
system.mem_ctrls.dram.rank0.pwrStateTime::REF   2578160000                       # Time in different power states
system.mem_ctrls.dram.rank0.pwrStateTime::SREF            0                       # Time in different power states
system.mem_ctrls.dram.rank0.pwrStateTime::PRE_PDN            0                       # Time in different power states
system.mem_ctrls.dram.rank0.pwrStateTime::ACT  31775589760                       # Time in different power states
system.mem_ctrls.dram.rank0.pwrStateTime::ACT_PDN            0                       # Time in different power states
system.mem_ctrls.dram.rank1.actEnergy        41490540                       # Energy for activate commands per rank (pJ)
system.mem_ctrls.dram.rank1.preEnergy        22052745                       # Energy for precharge commands per rank (pJ)
system.mem_ctrls.dram.rank1.readEnergy      141771840                       # Energy for read commands per rank (pJ)
system.mem_ctrls.dram.rank1.writeEnergy             0                       # Energy for write commands per rank (pJ)
system.mem_ctrls.dram.rank1.refreshEnergy 6094770240.000001                       # Energy for refresh commands per rank (pJ)
system.mem_ctrls.dram.rank1.actBackEnergy  15155813220                       # Energy for active background per rank (pJ)
system.mem_ctrls.dram.rank1.preBackEnergy  16887115680                       # Energy for precharge background per rank (pJ)
system.mem_ctrls.dram.rank1.actPowerDownEnergy            0                       # Energy for active power-down per rank (pJ)
system.mem_ctrls.dram.rank1.prePowerDownEnergy            0                       # Energy for precharge power-down per rank (pJ)
system.mem_ctrls.dram.rank1.selfRefreshEnergy            0                       # Energy for self refresh per rank (pJ)
system.mem_ctrls.dram.rank1.totalEnergy   38343014265                       # Total energy per rank (pJ)
system.mem_ctrls.dram.rank1.averagePower   496.585643                       # Core power per rank (mW)
system.mem_ctrls.dram.rank1.totalIdleTime            0                       # Total Idle time Per DRAM Rank
system.mem_ctrls.dram.rank1.pwrStateTime::IDLE  43768801866                       # Time in different power states
system.mem_ctrls.dram.rank1.pwrStateTime::REF   2578160000                       # Time in different power states
system.mem_ctrls.dram.rank1.pwrStateTime::SREF            0                       # Time in different power states
system.mem_ctrls.dram.rank1.pwrStateTime::PRE_PDN            0                       # Time in different power states
system.mem_ctrls.dram.rank1.pwrStateTime::ACT  30866334155                       # Time in different power states
system.mem_ctrls.dram.rank1.pwrStateTime::ACT_PDN            0                       # Time in different power states
system.mem_ctrls.power_state.pwrStateResidencyTicks::UNDEFINED  77213296021                       # Cumulative time (in ticks) in various power states
system.membus.trans_dist::ReadResp                745                       # Transaction distribution
system.membus.trans_dist::ReadExReq             38792                       # Transaction distribution
system.membus.trans_dist::ReadExResp            38792                       # Transaction distribution
system.membus.trans_dist::ReadSharedReq           745                       # Transaction distribution
system.membus.pkt_count_system.l2.mem_side_port::system.mem_ctrls.port        79074                       # Packet count per connected requestor and responder (bytes)
system.membus.pkt_count::total                  79074                       # Packet count per connected requestor and responder (bytes)
system.membus.pkt_size_system.l2.mem_side_port::system.mem_ctrls.port      2530368                       # Cumulative packet size per connected requestor and responder (bytes)
system.membus.pkt_size::total                 2530368                       # Cumulative packet size per connected requestor and responder (bytes)
system.membus.snoops                                0                       # Total snoops (count)
system.membus.snoopTraffic                          0                       # Total snoop traffic (bytes)
system.membus.snoop_fanout::samples             39537                       # Request fanout histogram
system.membus.snoop_fanout::mean                    0                       # Request fanout histogram
system.membus.snoop_fanout::stdev                   0                       # Request fanout histogram
system.membus.snoop_fanout::underflows              0      0.00%      0.00% # Request fanout histogram
system.membus.snoop_fanout::0                   39537    100.00%    100.00% # Request fanout histogram
system.membus.snoop_fanout::1                       0      0.00%    100.00% # Request fanout histogram
system.membus.snoop_fanout::overflows               0      0.00%    100.00% # Request fanout histogram
system.membus.snoop_fanout::min_value               0                       # Request fanout histogram
system.membus.snoop_fanout::max_value               0                       # Request fanout histogram
system.membus.snoop_fanout::total               39537                       # Request fanout histogram
system.membus.power_state.pwrStateResidencyTicks::UNDEFINED  77213296021                       # Cumulative time (in ticks) in various power states
system.membus.reqLayer0.occupancy            60303667                       # Layer occupancy (ticks)
system.membus.reqLayer0.utilization               0.1                       # Layer utilization (%)
system.membus.respLayer1.occupancy          210558467                       # Layer occupancy (ticks)
system.membus.respLayer1.utilization              0.3                       # Layer utilization (%)
system.tol2bus.trans_dist::ReadResp            151639                       # Transaction distribution
system.tol2bus.trans_dist::WritebackDirty        51233                       # Transaction distribution
system.tol2bus.trans_dist::WritebackClean       134097                       # Transaction distribution
system.tol2bus.trans_dist::CleanEvict            3857                       # Transaction distribution
system.tol2bus.trans_dist::ReadExReq            38963                       # Transaction distribution
system.tol2bus.trans_dist::ReadExResp           38963                       # Transaction distribution
system.tol2bus.trans_dist::ReadCleanReq        134488                       # Transaction distribution
system.tol2bus.trans_dist::ReadSharedReq        17151                       # Transaction distribution
system.tol2bus.pkt_count_system.cpu.icache.mem_side_port::system.l2.cpu_side_port       403073                       # Packet count per connected requestor and responder (bytes)
system.tol2bus.pkt_count_system.cpu.dcache.mem_side_port::system.l2.cpu_side_port       167318                       # Packet count per connected requestor and responder (bytes)
system.tol2bus.pkt_count::total                570391                       # Packet count per connected requestor and responder (bytes)
system.tol2bus.pkt_size_system.cpu.icache.mem_side_port::system.l2.cpu_side_port     17189440                       # Cumulative packet size per connected requestor and responder (bytes)
system.tol2bus.pkt_size_system.cpu.dcache.mem_side_port::system.l2.cpu_side_port      6870208                       # Cumulative packet size per connected requestor and responder (bytes)
system.tol2bus.pkt_size::total               24059648                       # Cumulative packet size per connected requestor and responder (bytes)
system.tol2bus.snoops                               0                       # Total snoops (count)
system.tol2bus.snoopTraffic                         0                       # Total snoop traffic (bytes)
system.tol2bus.snoop_fanout::samples           190602                       # Request fanout histogram
system.tol2bus.snoop_fanout::mean            0.001768                       # Request fanout histogram
system.tol2bus.snoop_fanout::stdev           0.042011                       # Request fanout histogram
system.tol2bus.snoop_fanout::underflows             0      0.00%      0.00% # Request fanout histogram
system.tol2bus.snoop_fanout::0                 190265     99.82%     99.82% # Request fanout histogram
system.tol2bus.snoop_fanout::1                    337      0.18%    100.00% # Request fanout histogram
system.tol2bus.snoop_fanout::2                      0      0.00%    100.00% # Request fanout histogram
system.tol2bus.snoop_fanout::overflows              0      0.00%    100.00% # Request fanout histogram
system.tol2bus.snoop_fanout::min_value              0                       # Request fanout histogram
system.tol2bus.snoop_fanout::max_value              1                       # Request fanout histogram
system.tol2bus.snoop_fanout::total             190602                       # Request fanout histogram
system.tol2bus.power_state.pwrStateResidencyTicks::UNDEFINED  77213296021                       # Cumulative time (in ticks) in various power states
system.tol2bus.reqLayer0.occupancy          500549483                       # Layer occupancy (ticks)
system.tol2bus.reqLayer0.utilization              0.6                       # Layer utilization (%)
system.tol2bus.respLayer0.occupancy         269110488                       # Layer occupancy (ticks)
system.tol2bus.respLayer0.utilization             0.3                       # Layer utilization (%)
system.tol2bus.respLayer1.occupancy         112286778                       # Layer occupancy (ticks)
system.tol2bus.respLayer1.utilization             0.1                       # Layer utilization (%)
system.voltage_domain.voltage                       1                       # Voltage in Volts

---------- End Simulation Statistics   ----------
