
---------- Begin Simulation Statistics ----------
final_tick                               582162996697                       # Number of ticks from beginning of simulation (restored from checkpoints and never reset)
host_inst_rate                                 136641                       # Simulator instruction rate (inst/s)
host_mem_usage                                 680792                       # Number of bytes of host memory used
host_op_rate                                   251718                       # Simulator op (including micro ops) rate (op/s)
host_seconds                                   731.85                       # Real time elapsed on the host
host_tick_rate                              795471114                       # Simulator tick rate (ticks/s)
sim_freq                                 1000000000000                       # Frequency of simulated ticks
sim_insts                                   100000000                       # Number of instructions simulated
sim_ops                                     184218801                       # Number of ops (including micro ops) simulated
sim_seconds                                  0.582163                       # Number of seconds simulated
sim_ticks                                582162996697                       # Number of ticks simulated
system.cpu.committedInsts                   100000000                       # Number of instructions committed
system.cpu.committedOps                     184218801                       # Number of ops (including micro ops) committed
system.cpu.cpi                               8.728081                       # CPI: cycles per instruction
system.cpu.discardedOps                          4386                       # Number of ops (including micro ops) which were discarded before commit
system.cpu.idleCycles                       651079108                       # Total number of cycles that the object has spent stopped
system.cpu.ipc                               0.114573                       # IPC: instructions per cycle
system.cpu.numCycles                        872808091                       # number of cpu cycles simulated
system.cpu.numFetchSuspends                         0                       # Number of times Execute suspended instruction fetching
system.cpu.numWorkItemsCompleted                    0                       # number of work items this cpu completed
system.cpu.numWorkItemsStarted                      0                       # number of work items this cpu started
system.cpu.op_class_0::No_OpClass                   0      0.00%      0.00% # Class of committed instruction
system.cpu.op_class_0::IntAlu                97640467     53.00%     53.00% # Class of committed instruction
system.cpu.op_class_0::IntMult                 114702      0.06%     53.06% # Class of committed instruction
system.cpu.op_class_0::IntDiv                       0      0.00%     53.06% # Class of committed instruction
system.cpu.op_class_0::FloatAdd                     0      0.00%     53.06% # Class of committed instruction
system.cpu.op_class_0::FloatCmp                     0      0.00%     53.06% # Class of committed instruction
system.cpu.op_class_0::FloatCvt                     0      0.00%     53.06% # Class of committed instruction
system.cpu.op_class_0::FloatMult                    0      0.00%     53.06% # Class of committed instruction
system.cpu.op_class_0::FloatMultAcc                 0      0.00%     53.06% # Class of committed instruction
system.cpu.op_class_0::FloatDiv                     0      0.00%     53.06% # Class of committed instruction
system.cpu.op_class_0::FloatMisc                    0      0.00%     53.06% # Class of committed instruction
system.cpu.op_class_0::FloatSqrt                    0      0.00%     53.06% # Class of committed instruction
system.cpu.op_class_0::SimdAdd                      8      0.00%     53.06% # Class of committed instruction
system.cpu.op_class_0::SimdAddAcc                   0      0.00%     53.06% # Class of committed instruction
system.cpu.op_class_0::SimdAlu                     10      0.00%     53.06% # Class of committed instruction
system.cpu.op_class_0::SimdCmp                      8      0.00%     53.06% # Class of committed instruction
system.cpu.op_class_0::SimdCvt                      0      0.00%     53.06% # Class of committed instruction
system.cpu.op_class_0::SimdMisc                     1      0.00%     53.06% # Class of committed instruction
system.cpu.op_class_0::SimdMult                     0      0.00%     53.06% # Class of committed instruction
system.cpu.op_class_0::SimdMultAcc                  0      0.00%     53.06% # Class of committed instruction
system.cpu.op_class_0::SimdShift                    0      0.00%     53.06% # Class of committed instruction
system.cpu.op_class_0::SimdShiftAcc                 0      0.00%     53.06% # Class of committed instruction
system.cpu.op_class_0::SimdDiv                      0      0.00%     53.06% # Class of committed instruction
system.cpu.op_class_0::SimdSqrt                     0      0.00%     53.06% # Class of committed instruction
system.cpu.op_class_0::SimdFloatAdd                 0      0.00%     53.06% # Class of committed instruction
system.cpu.op_class_0::SimdFloatAlu                 0      0.00%     53.06% # Class of committed instruction
system.cpu.op_class_0::SimdFloatCmp                 0      0.00%     53.06% # Class of committed instruction
system.cpu.op_class_0::SimdFloatCvt                 0      0.00%     53.06% # Class of committed instruction
system.cpu.op_class_0::SimdFloatDiv                 0      0.00%     53.06% # Class of committed instruction
system.cpu.op_class_0::SimdFloatMisc               24      0.00%     53.06% # Class of committed instruction
system.cpu.op_class_0::SimdFloatMult                0      0.00%     53.06% # Class of committed instruction
system.cpu.op_class_0::SimdFloatMultAcc             0      0.00%     53.06% # Class of committed instruction
system.cpu.op_class_0::SimdFloatSqrt                0      0.00%     53.06% # Class of committed instruction
system.cpu.op_class_0::SimdReduceAdd                0      0.00%     53.06% # Class of committed instruction
system.cpu.op_class_0::SimdReduceAlu                0      0.00%     53.06% # Class of committed instruction
system.cpu.op_class_0::SimdReduceCmp                0      0.00%     53.06% # Class of committed instruction
system.cpu.op_class_0::SimdFloatReduceAdd            0      0.00%     53.06% # Class of committed instruction
system.cpu.op_class_0::SimdFloatReduceCmp            0      0.00%     53.06% # Class of committed instruction
system.cpu.op_class_0::SimdAes                      0      0.00%     53.06% # Class of committed instruction
system.cpu.op_class_0::SimdAesMix                   0      0.00%     53.06% # Class of committed instruction
system.cpu.op_class_0::SimdSha1Hash                 0      0.00%     53.06% # Class of committed instruction
system.cpu.op_class_0::SimdSha1Hash2                0      0.00%     53.06% # Class of committed instruction
system.cpu.op_class_0::SimdSha256Hash               0      0.00%     53.06% # Class of committed instruction
system.cpu.op_class_0::SimdSha256Hash2              0      0.00%     53.06% # Class of committed instruction
system.cpu.op_class_0::SimdShaSigma2                0      0.00%     53.06% # Class of committed instruction
system.cpu.op_class_0::SimdShaSigma3                0      0.00%     53.06% # Class of committed instruction
system.cpu.op_class_0::SimdPredAlu                  0      0.00%     53.06% # Class of committed instruction
system.cpu.op_class_0::MemRead                2082677      1.13%     54.20% # Class of committed instruction
system.cpu.op_class_0::MemWrite              84380904     45.80%    100.00% # Class of committed instruction
system.cpu.op_class_0::FloatMemRead                 0      0.00%    100.00% # Class of committed instruction
system.cpu.op_class_0::FloatMemWrite                0      0.00%    100.00% # Class of committed instruction
system.cpu.op_class_0::IprAccess                    0      0.00%    100.00% # Class of committed instruction
system.cpu.op_class_0::InstPrefetch                 0      0.00%    100.00% # Class of committed instruction
system.cpu.op_class_0::total                184218801                       # Class of committed instruction
system.cpu.tickCycles                       221728983                       # Number of cycles that the object actually ticked
system.cpu.workload.numSyscalls                    19                       # Number of system calls
system.membus.snoop_filter.hit_multi_requests            0                       # Number of requests hitting in the snoop filter with multiple (>1) holders of the requested data.
system.membus.snoop_filter.hit_multi_snoops            0                       # Number of snoops hitting in the snoop filter with multiple (>1) holders of the requested data.
system.membus.snoop_filter.hit_single_requests      5230689                       # Number of requests hitting in the snoop filter with a single holder of the requested data.
system.membus.snoop_filter.hit_single_snoops            0                       # Number of snoops hitting in the snoop filter with a single holder of the requested data.
system.membus.snoop_filter.tot_requests      10494562                       # Total number of requests made to the snoop filter.
system.membus.snoop_filter.tot_snoops               0                       # Total number of snoops made to the snoop filter.
system.tol2bus.snoop_filter.hit_multi_requests           57                       # Number of requests hitting in the snoop filter with multiple (>1) holders of the requested data.
system.tol2bus.snoop_filter.hit_multi_snoops            0                       # Number of snoops hitting in the snoop filter with multiple (>1) holders of the requested data.
system.tol2bus.snoop_filter.hit_single_requests      5259447                       # Number of requests hitting in the snoop filter with a single holder of the requested data.
system.tol2bus.snoop_filter.hit_single_snoops          534                       # Number of snoops hitting in the snoop filter with a single holder of the requested data.
system.tol2bus.snoop_filter.tot_requests     10523418                       # Total number of requests made to the snoop filter.
system.tol2bus.snoop_filter.tot_snoops            534                       # Total number of snoops made to the snoop filter.
system.clk_domain.clock                          1000                       # Clock period in ticks
system.cpu.branchPred.lookups                10658201                       # Number of BP lookups
system.cpu.branchPred.condPredicted          10649984                       # Number of conditional branches predicted
system.cpu.branchPred.condIncorrect              1465                       # Number of conditional branches incorrect
system.cpu.branchPred.BTBLookups             10650145                       # Number of BTB lookups
system.cpu.branchPred.BTBHits                10648794                       # Number of BTB hits
system.cpu.branchPred.BTBHitPct             99.987315                       # BTB Hit Percentage
system.cpu.branchPred.RASUsed                    2718                       # Number of times the RAS was used to get a target.
system.cpu.branchPred.RASIncorrect                  1                       # Number of incorrect RAS predictions.
system.cpu.branchPred.indirectLookups             197                       # Number of indirect predictor lookups.
system.cpu.branchPred.indirectHits                 20                       # Number of indirect target hits.
system.cpu.branchPred.indirectMisses              177                       # Number of indirect misses.
system.cpu.branchPred.indirectMispredicted          103                       # Number of mispredicted indirect branches.
system.cpu.dcache.demand_hits::.cpu.data     75856988                       # number of demand (read+write) hits
system.cpu.dcache.demand_hits::total         75856988                       # number of demand (read+write) hits
system.cpu.dcache.overall_hits::.cpu.data     75857023                       # number of overall hits
system.cpu.dcache.overall_hits::total        75857023                       # number of overall hits
system.cpu.dcache.demand_misses::.cpu.data     10523754                       # number of demand (read+write) misses
system.cpu.dcache.demand_misses::total       10523754                       # number of demand (read+write) misses
system.cpu.dcache.overall_misses::.cpu.data     10523790                       # number of overall misses
system.cpu.dcache.overall_misses::total      10523790                       # number of overall misses
system.cpu.dcache.demand_miss_latency::.cpu.data 963043649183                       # number of demand (read+write) miss cycles
system.cpu.dcache.demand_miss_latency::total 963043649183                       # number of demand (read+write) miss cycles
system.cpu.dcache.overall_miss_latency::.cpu.data 963043649183                       # number of overall miss cycles
system.cpu.dcache.overall_miss_latency::total 963043649183                       # number of overall miss cycles
system.cpu.dcache.demand_accesses::.cpu.data     86380742                       # number of demand (read+write) accesses
system.cpu.dcache.demand_accesses::total     86380742                       # number of demand (read+write) accesses
system.cpu.dcache.overall_accesses::.cpu.data     86380813                       # number of overall (read+write) accesses
system.cpu.dcache.overall_accesses::total     86380813                       # number of overall (read+write) accesses
system.cpu.dcache.demand_miss_rate::.cpu.data     0.121830                       # miss rate for demand accesses
system.cpu.dcache.demand_miss_rate::total     0.121830                       # miss rate for demand accesses
system.cpu.dcache.overall_miss_rate::.cpu.data     0.121830                       # miss rate for overall accesses
system.cpu.dcache.overall_miss_rate::total     0.121830                       # miss rate for overall accesses
system.cpu.dcache.demand_avg_miss_latency::.cpu.data 91511.417806                       # average overall miss latency
system.cpu.dcache.demand_avg_miss_latency::total 91511.417806                       # average overall miss latency
system.cpu.dcache.overall_avg_miss_latency::.cpu.data 91511.104762                       # average overall miss latency
system.cpu.dcache.overall_avg_miss_latency::total 91511.104762                       # average overall miss latency
system.cpu.dcache.blocked_cycles::no_mshrs          243                       # number of cycles access was blocked
system.cpu.dcache.blocked_cycles::no_targets            0                       # number of cycles access was blocked
system.cpu.dcache.blocked::no_mshrs                 3                       # number of cycles access was blocked
system.cpu.dcache.blocked::no_targets               0                       # number of cycles access was blocked
system.cpu.dcache.avg_blocked_cycles::no_mshrs           81                       # average number of cycles each access was blocked
system.cpu.dcache.avg_blocked_cycles::no_targets          nan                       # average number of cycles each access was blocked
system.cpu.dcache.writebacks::.writebacks      5258960                       # number of writebacks
system.cpu.dcache.writebacks::total           5258960                       # number of writebacks
system.cpu.dcache.demand_mshr_hits::.cpu.data      5260452                       # number of demand (read+write) MSHR hits
system.cpu.dcache.demand_mshr_hits::total      5260452                       # number of demand (read+write) MSHR hits
system.cpu.dcache.overall_mshr_hits::.cpu.data      5260452                       # number of overall MSHR hits
system.cpu.dcache.overall_mshr_hits::total      5260452                       # number of overall MSHR hits
system.cpu.dcache.demand_mshr_misses::.cpu.data      5263302                       # number of demand (read+write) MSHR misses
system.cpu.dcache.demand_mshr_misses::total      5263302                       # number of demand (read+write) MSHR misses
system.cpu.dcache.overall_mshr_misses::.cpu.data      5263333                       # number of overall MSHR misses
system.cpu.dcache.overall_mshr_misses::total      5263333                       # number of overall MSHR misses
system.cpu.dcache.demand_mshr_miss_latency::.cpu.data 472884184597                       # number of demand (read+write) MSHR miss cycles
system.cpu.dcache.demand_mshr_miss_latency::total 472884184597                       # number of demand (read+write) MSHR miss cycles
system.cpu.dcache.overall_mshr_miss_latency::.cpu.data 472886725867                       # number of overall MSHR miss cycles
system.cpu.dcache.overall_mshr_miss_latency::total 472886725867                       # number of overall MSHR miss cycles
system.cpu.dcache.demand_mshr_miss_rate::.cpu.data     0.060931                       # mshr miss rate for demand accesses
system.cpu.dcache.demand_mshr_miss_rate::total     0.060931                       # mshr miss rate for demand accesses
system.cpu.dcache.overall_mshr_miss_rate::.cpu.data     0.060932                       # mshr miss rate for overall accesses
system.cpu.dcache.overall_mshr_miss_rate::total     0.060932                       # mshr miss rate for overall accesses
system.cpu.dcache.demand_avg_mshr_miss_latency::.cpu.data 89845.535103                       # average overall mshr miss latency
system.cpu.dcache.demand_avg_mshr_miss_latency::total 89845.535103                       # average overall mshr miss latency
system.cpu.dcache.overall_avg_mshr_miss_latency::.cpu.data 89845.488755                       # average overall mshr miss latency
system.cpu.dcache.overall_avg_mshr_miss_latency::total 89845.488755                       # average overall mshr miss latency
system.cpu.dcache.replacements                5259237                       # number of replacements
system.cpu.dcache.ReadReq_hits::.cpu.data      2043832                       # number of ReadReq hits
system.cpu.dcache.ReadReq_hits::total         2043832                       # number of ReadReq hits
system.cpu.dcache.ReadReq_misses::.cpu.data          300                       # number of ReadReq misses
system.cpu.dcache.ReadReq_misses::total           300                       # number of ReadReq misses
system.cpu.dcache.ReadReq_miss_latency::.cpu.data     26277132                       # number of ReadReq miss cycles
system.cpu.dcache.ReadReq_miss_latency::total     26277132                       # number of ReadReq miss cycles
system.cpu.dcache.ReadReq_accesses::.cpu.data      2044132                       # number of ReadReq accesses(hits+misses)
system.cpu.dcache.ReadReq_accesses::total      2044132                       # number of ReadReq accesses(hits+misses)
system.cpu.dcache.ReadReq_miss_rate::.cpu.data     0.000147                       # miss rate for ReadReq accesses
system.cpu.dcache.ReadReq_miss_rate::total     0.000147                       # miss rate for ReadReq accesses
system.cpu.dcache.ReadReq_avg_miss_latency::.cpu.data 87590.440000                       # average ReadReq miss latency
system.cpu.dcache.ReadReq_avg_miss_latency::total 87590.440000                       # average ReadReq miss latency
system.cpu.dcache.ReadReq_mshr_hits::.cpu.data           22                       # number of ReadReq MSHR hits
system.cpu.dcache.ReadReq_mshr_hits::total           22                       # number of ReadReq MSHR hits
system.cpu.dcache.ReadReq_mshr_misses::.cpu.data          278                       # number of ReadReq MSHR misses
system.cpu.dcache.ReadReq_mshr_misses::total          278                       # number of ReadReq MSHR misses
system.cpu.dcache.ReadReq_mshr_miss_latency::.cpu.data     24142732                       # number of ReadReq MSHR miss cycles
system.cpu.dcache.ReadReq_mshr_miss_latency::total     24142732                       # number of ReadReq MSHR miss cycles
system.cpu.dcache.ReadReq_mshr_miss_rate::.cpu.data     0.000136                       # mshr miss rate for ReadReq accesses
system.cpu.dcache.ReadReq_mshr_miss_rate::total     0.000136                       # mshr miss rate for ReadReq accesses
system.cpu.dcache.ReadReq_avg_mshr_miss_latency::.cpu.data 86844.359712                       # average ReadReq mshr miss latency
system.cpu.dcache.ReadReq_avg_mshr_miss_latency::total 86844.359712                       # average ReadReq mshr miss latency
system.cpu.dcache.WriteReq_hits::.cpu.data     73813156                       # number of WriteReq hits
system.cpu.dcache.WriteReq_hits::total       73813156                       # number of WriteReq hits
system.cpu.dcache.WriteReq_misses::.cpu.data     10523454                       # number of WriteReq misses
system.cpu.dcache.WriteReq_misses::total     10523454                       # number of WriteReq misses
system.cpu.dcache.WriteReq_miss_latency::.cpu.data 963017372051                       # number of WriteReq miss cycles
system.cpu.dcache.WriteReq_miss_latency::total 963017372051                       # number of WriteReq miss cycles
system.cpu.dcache.WriteReq_accesses::.cpu.data     84336610                       # number of WriteReq accesses(hits+misses)
system.cpu.dcache.WriteReq_accesses::total     84336610                       # number of WriteReq accesses(hits+misses)
system.cpu.dcache.WriteReq_miss_rate::.cpu.data     0.124779                       # miss rate for WriteReq accesses
system.cpu.dcache.WriteReq_miss_rate::total     0.124779                       # miss rate for WriteReq accesses
system.cpu.dcache.WriteReq_avg_miss_latency::.cpu.data 91511.529584                       # average WriteReq miss latency
system.cpu.dcache.WriteReq_avg_miss_latency::total 91511.529584                       # average WriteReq miss latency
system.cpu.dcache.WriteReq_mshr_hits::.cpu.data      5260430                       # number of WriteReq MSHR hits
system.cpu.dcache.WriteReq_mshr_hits::total      5260430                       # number of WriteReq MSHR hits
system.cpu.dcache.WriteReq_mshr_misses::.cpu.data      5263024                       # number of WriteReq MSHR misses
system.cpu.dcache.WriteReq_mshr_misses::total      5263024                       # number of WriteReq MSHR misses
system.cpu.dcache.WriteReq_mshr_miss_latency::.cpu.data 472860041865                       # number of WriteReq MSHR miss cycles
system.cpu.dcache.WriteReq_mshr_miss_latency::total 472860041865                       # number of WriteReq MSHR miss cycles
system.cpu.dcache.WriteReq_mshr_miss_rate::.cpu.data     0.062405                       # mshr miss rate for WriteReq accesses
system.cpu.dcache.WriteReq_mshr_miss_rate::total     0.062405                       # mshr miss rate for WriteReq accesses
system.cpu.dcache.WriteReq_avg_mshr_miss_latency::.cpu.data 89845.693629                       # average WriteReq mshr miss latency
system.cpu.dcache.WriteReq_avg_mshr_miss_latency::total 89845.693629                       # average WriteReq mshr miss latency
system.cpu.dcache.SoftPFReq_hits::.cpu.data           35                       # number of SoftPFReq hits
system.cpu.dcache.SoftPFReq_hits::total            35                       # number of SoftPFReq hits
system.cpu.dcache.SoftPFReq_misses::.cpu.data           36                       # number of SoftPFReq misses
system.cpu.dcache.SoftPFReq_misses::total           36                       # number of SoftPFReq misses
system.cpu.dcache.SoftPFReq_accesses::.cpu.data           71                       # number of SoftPFReq accesses(hits+misses)
system.cpu.dcache.SoftPFReq_accesses::total           71                       # number of SoftPFReq accesses(hits+misses)
system.cpu.dcache.SoftPFReq_miss_rate::.cpu.data     0.507042                       # miss rate for SoftPFReq accesses
system.cpu.dcache.SoftPFReq_miss_rate::total     0.507042                       # miss rate for SoftPFReq accesses
system.cpu.dcache.SoftPFReq_mshr_misses::.cpu.data           31                       # number of SoftPFReq MSHR misses
system.cpu.dcache.SoftPFReq_mshr_misses::total           31                       # number of SoftPFReq MSHR misses
system.cpu.dcache.SoftPFReq_mshr_miss_latency::.cpu.data      2541270                       # number of SoftPFReq MSHR miss cycles
system.cpu.dcache.SoftPFReq_mshr_miss_latency::total      2541270                       # number of SoftPFReq MSHR miss cycles
system.cpu.dcache.SoftPFReq_mshr_miss_rate::.cpu.data     0.436620                       # mshr miss rate for SoftPFReq accesses
system.cpu.dcache.SoftPFReq_mshr_miss_rate::total     0.436620                       # mshr miss rate for SoftPFReq accesses
system.cpu.dcache.SoftPFReq_avg_mshr_miss_latency::.cpu.data 81976.451613                       # average SoftPFReq mshr miss latency
system.cpu.dcache.SoftPFReq_avg_mshr_miss_latency::total 81976.451613                       # average SoftPFReq mshr miss latency
system.cpu.dcache.LoadLockedReq_hits::.cpu.data           34                       # number of LoadLockedReq hits
system.cpu.dcache.LoadLockedReq_hits::total           34                       # number of LoadLockedReq hits
system.cpu.dcache.LoadLockedReq_accesses::.cpu.data           34                       # number of LoadLockedReq accesses(hits+misses)
system.cpu.dcache.LoadLockedReq_accesses::total           34                       # number of LoadLockedReq accesses(hits+misses)
system.cpu.dcache.StoreCondReq_hits::.cpu.data           34                       # number of StoreCondReq hits
system.cpu.dcache.StoreCondReq_hits::total           34                       # number of StoreCondReq hits
system.cpu.dcache.StoreCondReq_accesses::.cpu.data           34                       # number of StoreCondReq accesses(hits+misses)
system.cpu.dcache.StoreCondReq_accesses::total           34                       # number of StoreCondReq accesses(hits+misses)
system.cpu.dcache.power_state.pwrStateResidencyTicks::UNDEFINED 582162996697                       # Cumulative time (in ticks) in various power states
system.cpu.dcache.tags.tagsinuse          4080.205331                       # Cycle average of tags in use
system.cpu.dcache.tags.total_refs            81120424                       # Total number of references to valid blocks.
system.cpu.dcache.tags.sampled_refs           5263333                       # Sample count of references to valid blocks.
system.cpu.dcache.tags.avg_refs             15.412368                       # Average number of references to valid blocks.
system.cpu.dcache.tags.warmup_cycle            192096                       # Cycle when the warmup percentage was hit.
system.cpu.dcache.tags.occ_blocks::.cpu.data  4080.205331                       # Average occupied blocks per requestor
system.cpu.dcache.tags.occ_percent::.cpu.data     0.996144                       # Average percentage of cache occupancy
system.cpu.dcache.tags.occ_percent::total     0.996144                       # Average percentage of cache occupancy
system.cpu.dcache.tags.occ_task_id_blocks::1024         4096                       # Occupied blocks per task id
system.cpu.dcache.tags.age_task_id_blocks_1024::0           90                       # Occupied blocks per task id
system.cpu.dcache.tags.age_task_id_blocks_1024::1          821                       # Occupied blocks per task id
system.cpu.dcache.tags.age_task_id_blocks_1024::2         3185                       # Occupied blocks per task id
system.cpu.dcache.tags.occ_task_id_percent::1024            1                       # Percentage of cache occupancy per task id
system.cpu.dcache.tags.tag_accesses         178025095                       # Number of tag accesses
system.cpu.dcache.tags.data_accesses        178025095                       # Number of data accesses
system.cpu.dcache.tags.power_state.pwrStateResidencyTicks::UNDEFINED 582162996697                       # Cumulative time (in ticks) in various power states
system.cpu.dtb.instHits                             0                       # ITB inst hits
system.cpu.dtb.instMisses                           0                       # ITB inst misses
system.cpu.dtb.readHits                             0                       # DTB read hits
system.cpu.dtb.readMisses                           0                       # DTB read misses
system.cpu.dtb.writeHits                            0                       # DTB write hits
system.cpu.dtb.writeMisses                          0                       # DTB write misses
system.cpu.dtb.inserts                              0                       # Number of times an entry is inserted into the TLB
system.cpu.dtb.flushTlb                             0                       # Number of times complete TLB was flushed
system.cpu.dtb.flushTlbMva                          0                       # Number of times TLB was flushed by MVA
system.cpu.dtb.flushTlbMvaAsid                      0                       # Number of times TLB was flushed by MVA & ASID
system.cpu.dtb.flushTlbAsid                         0                       # Number of times TLB was flushed by ASID
system.cpu.dtb.flushedEntries                       0                       # Number of entries that have been flushed from TLB
system.cpu.dtb.alignFaults                          0                       # Number of TLB faults due to alignment restrictions
system.cpu.dtb.prefetchFaults                       0                       # Number of TLB faults due to prefetch
system.cpu.dtb.domainFaults                         0                       # Number of TLB faults due to domain restrictions
system.cpu.dtb.permsFaults                          0                       # Number of TLB faults due to permissions restrictions
system.cpu.dtb.readAccesses                         0                       # DTB read accesses
system.cpu.dtb.writeAccesses                        0                       # DTB write accesses
system.cpu.dtb.instAccesses                         0                       # ITB inst accesses
system.cpu.dtb.hits                                 0                       # Total TLB (inst and data) hits
system.cpu.dtb.misses                               0                       # Total TLB (inst and data) misses
system.cpu.dtb.accesses                             0                       # Total TLB (inst and data) accesses
system.cpu.dtb.stage2_mmu.stage2_tlb.instHits            0                       # ITB inst hits
system.cpu.dtb.stage2_mmu.stage2_tlb.instMisses            0                       # ITB inst misses
system.cpu.dtb.stage2_mmu.stage2_tlb.readHits            0                       # DTB read hits
system.cpu.dtb.stage2_mmu.stage2_tlb.readMisses            0                       # DTB read misses
system.cpu.dtb.stage2_mmu.stage2_tlb.writeHits            0                       # DTB write hits
system.cpu.dtb.stage2_mmu.stage2_tlb.writeMisses            0                       # DTB write misses
system.cpu.dtb.stage2_mmu.stage2_tlb.inserts            0                       # Number of times an entry is inserted into the TLB
system.cpu.dtb.stage2_mmu.stage2_tlb.flushTlb            0                       # Number of times complete TLB was flushed
system.cpu.dtb.stage2_mmu.stage2_tlb.flushTlbMva            0                       # Number of times TLB was flushed by MVA
system.cpu.dtb.stage2_mmu.stage2_tlb.flushTlbMvaAsid            0                       # Number of times TLB was flushed by MVA & ASID
system.cpu.dtb.stage2_mmu.stage2_tlb.flushTlbAsid            0                       # Number of times TLB was flushed by ASID
system.cpu.dtb.stage2_mmu.stage2_tlb.flushedEntries            0                       # Number of entries that have been flushed from TLB
system.cpu.dtb.stage2_mmu.stage2_tlb.alignFaults            0                       # Number of TLB faults due to alignment restrictions
system.cpu.dtb.stage2_mmu.stage2_tlb.prefetchFaults            0                       # Number of TLB faults due to prefetch
system.cpu.dtb.stage2_mmu.stage2_tlb.domainFaults            0                       # Number of TLB faults due to domain restrictions
system.cpu.dtb.stage2_mmu.stage2_tlb.permsFaults            0                       # Number of TLB faults due to permissions restrictions
system.cpu.dtb.stage2_mmu.stage2_tlb.readAccesses            0                       # DTB read accesses
system.cpu.dtb.stage2_mmu.stage2_tlb.writeAccesses            0                       # DTB write accesses
system.cpu.dtb.stage2_mmu.stage2_tlb.instAccesses            0                       # ITB inst accesses
system.cpu.dtb.stage2_mmu.stage2_tlb.hits            0                       # Total TLB (inst and data) hits
system.cpu.dtb.stage2_mmu.stage2_tlb.misses            0                       # Total TLB (inst and data) misses
system.cpu.dtb.stage2_mmu.stage2_tlb.accesses            0                       # Total TLB (inst and data) accesses
system.cpu.dtb.stage2_mmu.stage2_tlb.walker.walks            0                       # Table walker walks requested
system.cpu.dtb.stage2_mmu.stage2_tlb.walker.requestOrigin_Requested::Data            0                       # Table walker requests started/completed, data/inst
system.cpu.dtb.stage2_mmu.stage2_tlb.walker.requestOrigin_Requested::Inst            0                       # Table walker requests started/completed, data/inst
system.cpu.dtb.stage2_mmu.stage2_tlb.walker.requestOrigin_Requested::total            0                       # Table walker requests started/completed, data/inst
system.cpu.dtb.stage2_mmu.stage2_tlb.walker.requestOrigin_Completed::Data            0                       # Table walker requests started/completed, data/inst
system.cpu.dtb.stage2_mmu.stage2_tlb.walker.requestOrigin_Completed::Inst            0                       # Table walker requests started/completed, data/inst
system.cpu.dtb.stage2_mmu.stage2_tlb.walker.requestOrigin_Completed::total            0                       # Table walker requests started/completed, data/inst
system.cpu.dtb.stage2_mmu.stage2_tlb.walker.requestOrigin::total            0                       # Table walker requests started/completed, data/inst
system.cpu.dtb.stage2_mmu.stage2_tlb.walker.power_state.pwrStateResidencyTicks::UNDEFINED 582162996697                       # Cumulative time (in ticks) in various power states
system.cpu.dtb.walker.walks                         0                       # Table walker walks requested
system.cpu.dtb.walker.requestOrigin_Requested::Data            0                       # Table walker requests started/completed, data/inst
system.cpu.dtb.walker.requestOrigin_Requested::Inst            0                       # Table walker requests started/completed, data/inst
system.cpu.dtb.walker.requestOrigin_Requested::total            0                       # Table walker requests started/completed, data/inst
system.cpu.dtb.walker.requestOrigin_Completed::Data            0                       # Table walker requests started/completed, data/inst
system.cpu.dtb.walker.requestOrigin_Completed::Inst            0                       # Table walker requests started/completed, data/inst
system.cpu.dtb.walker.requestOrigin_Completed::total            0                       # Table walker requests started/completed, data/inst
system.cpu.dtb.walker.requestOrigin::total            0                       # Table walker requests started/completed, data/inst
system.cpu.dtb.walker.power_state.pwrStateResidencyTicks::UNDEFINED 582162996697                       # Cumulative time (in ticks) in various power states
system.cpu.fetch2.intInstructions            45070968                       # Number of integer instructions successfully decoded
system.cpu.fetch2.fpInstructions                    0                       # Number of floating point instructions successfully decoded
system.cpu.fetch2.vecInstructions                   0                       # Number of SIMD instructions successfully decoded
system.cpu.fetch2.loadInstructions            2086462                       # Number of memory load instructions successfully decoded
system.cpu.fetch2.storeInstructions            169113                       # Number of memory store instructions successfully decoded
system.cpu.fetch2.amoInstructions                   0                       # Number of memory atomic instructions successfully decoded
system.cpu.icache.demand_hits::.cpu.inst     42665156                       # number of demand (read+write) hits
system.cpu.icache.demand_hits::total         42665156                       # number of demand (read+write) hits
system.cpu.icache.overall_hits::.cpu.inst     42665156                       # number of overall hits
system.cpu.icache.overall_hits::total        42665156                       # number of overall hits
system.cpu.icache.demand_misses::.cpu.inst          638                       # number of demand (read+write) misses
system.cpu.icache.demand_misses::total            638                       # number of demand (read+write) misses
system.cpu.icache.overall_misses::.cpu.inst          638                       # number of overall misses
system.cpu.icache.overall_misses::total           638                       # number of overall misses
system.cpu.icache.demand_miss_latency::.cpu.inst     54495901                       # number of demand (read+write) miss cycles
system.cpu.icache.demand_miss_latency::total     54495901                       # number of demand (read+write) miss cycles
system.cpu.icache.overall_miss_latency::.cpu.inst     54495901                       # number of overall miss cycles
system.cpu.icache.overall_miss_latency::total     54495901                       # number of overall miss cycles
system.cpu.icache.demand_accesses::.cpu.inst     42665794                       # number of demand (read+write) accesses
system.cpu.icache.demand_accesses::total     42665794                       # number of demand (read+write) accesses
system.cpu.icache.overall_accesses::.cpu.inst     42665794                       # number of overall (read+write) accesses
system.cpu.icache.overall_accesses::total     42665794                       # number of overall (read+write) accesses
system.cpu.icache.demand_miss_rate::.cpu.inst     0.000015                       # miss rate for demand accesses
system.cpu.icache.demand_miss_rate::total     0.000015                       # miss rate for demand accesses
system.cpu.icache.overall_miss_rate::.cpu.inst     0.000015                       # miss rate for overall accesses
system.cpu.icache.overall_miss_rate::total     0.000015                       # miss rate for overall accesses
system.cpu.icache.demand_avg_miss_latency::.cpu.inst 85416.772727                       # average overall miss latency
system.cpu.icache.demand_avg_miss_latency::total 85416.772727                       # average overall miss latency
system.cpu.icache.overall_avg_miss_latency::.cpu.inst 85416.772727                       # average overall miss latency
system.cpu.icache.overall_avg_miss_latency::total 85416.772727                       # average overall miss latency
system.cpu.icache.blocked_cycles::no_mshrs            0                       # number of cycles access was blocked
system.cpu.icache.blocked_cycles::no_targets            0                       # number of cycles access was blocked
system.cpu.icache.blocked::no_mshrs                 0                       # number of cycles access was blocked
system.cpu.icache.blocked::no_targets               0                       # number of cycles access was blocked
system.cpu.icache.avg_blocked_cycles::no_mshrs          nan                       # average number of cycles each access was blocked
system.cpu.icache.avg_blocked_cycles::no_targets          nan                       # average number of cycles each access was blocked
system.cpu.icache.writebacks::.writebacks          210                       # number of writebacks
system.cpu.icache.writebacks::total               210                       # number of writebacks
system.cpu.icache.demand_mshr_misses::.cpu.inst          638                       # number of demand (read+write) MSHR misses
system.cpu.icache.demand_mshr_misses::total          638                       # number of demand (read+write) MSHR misses
system.cpu.icache.overall_mshr_misses::.cpu.inst          638                       # number of overall MSHR misses
system.cpu.icache.overall_mshr_misses::total          638                       # number of overall MSHR misses
system.cpu.icache.demand_mshr_miss_latency::.cpu.inst     53644809                       # number of demand (read+write) MSHR miss cycles
system.cpu.icache.demand_mshr_miss_latency::total     53644809                       # number of demand (read+write) MSHR miss cycles
system.cpu.icache.overall_mshr_miss_latency::.cpu.inst     53644809                       # number of overall MSHR miss cycles
system.cpu.icache.overall_mshr_miss_latency::total     53644809                       # number of overall MSHR miss cycles
system.cpu.icache.demand_mshr_miss_rate::.cpu.inst     0.000015                       # mshr miss rate for demand accesses
system.cpu.icache.demand_mshr_miss_rate::total     0.000015                       # mshr miss rate for demand accesses
system.cpu.icache.overall_mshr_miss_rate::.cpu.inst     0.000015                       # mshr miss rate for overall accesses
system.cpu.icache.overall_mshr_miss_rate::total     0.000015                       # mshr miss rate for overall accesses
system.cpu.icache.demand_avg_mshr_miss_latency::.cpu.inst 84082.772727                       # average overall mshr miss latency
system.cpu.icache.demand_avg_mshr_miss_latency::total 84082.772727                       # average overall mshr miss latency
system.cpu.icache.overall_avg_mshr_miss_latency::.cpu.inst 84082.772727                       # average overall mshr miss latency
system.cpu.icache.overall_avg_mshr_miss_latency::total 84082.772727                       # average overall mshr miss latency
system.cpu.icache.replacements                    210                       # number of replacements
system.cpu.icache.ReadReq_hits::.cpu.inst     42665156                       # number of ReadReq hits
system.cpu.icache.ReadReq_hits::total        42665156                       # number of ReadReq hits
system.cpu.icache.ReadReq_misses::.cpu.inst          638                       # number of ReadReq misses
system.cpu.icache.ReadReq_misses::total           638                       # number of ReadReq misses
system.cpu.icache.ReadReq_miss_latency::.cpu.inst     54495901                       # number of ReadReq miss cycles
system.cpu.icache.ReadReq_miss_latency::total     54495901                       # number of ReadReq miss cycles
system.cpu.icache.ReadReq_accesses::.cpu.inst     42665794                       # number of ReadReq accesses(hits+misses)
system.cpu.icache.ReadReq_accesses::total     42665794                       # number of ReadReq accesses(hits+misses)
system.cpu.icache.ReadReq_miss_rate::.cpu.inst     0.000015                       # miss rate for ReadReq accesses
system.cpu.icache.ReadReq_miss_rate::total     0.000015                       # miss rate for ReadReq accesses
system.cpu.icache.ReadReq_avg_miss_latency::.cpu.inst 85416.772727                       # average ReadReq miss latency
system.cpu.icache.ReadReq_avg_miss_latency::total 85416.772727                       # average ReadReq miss latency
system.cpu.icache.ReadReq_mshr_misses::.cpu.inst          638                       # number of ReadReq MSHR misses
system.cpu.icache.ReadReq_mshr_misses::total          638                       # number of ReadReq MSHR misses
system.cpu.icache.ReadReq_mshr_miss_latency::.cpu.inst     53644809                       # number of ReadReq MSHR miss cycles
system.cpu.icache.ReadReq_mshr_miss_latency::total     53644809                       # number of ReadReq MSHR miss cycles
system.cpu.icache.ReadReq_mshr_miss_rate::.cpu.inst     0.000015                       # mshr miss rate for ReadReq accesses
system.cpu.icache.ReadReq_mshr_miss_rate::total     0.000015                       # mshr miss rate for ReadReq accesses
system.cpu.icache.ReadReq_avg_mshr_miss_latency::.cpu.inst 84082.772727                       # average ReadReq mshr miss latency
system.cpu.icache.ReadReq_avg_mshr_miss_latency::total 84082.772727                       # average ReadReq mshr miss latency
system.cpu.icache.power_state.pwrStateResidencyTicks::UNDEFINED 582162996697                       # Cumulative time (in ticks) in various power states
system.cpu.icache.tags.tagsinuse           380.385752                       # Cycle average of tags in use
system.cpu.icache.tags.total_refs            42665794                       # Total number of references to valid blocks.
system.cpu.icache.tags.sampled_refs               638                       # Sample count of references to valid blocks.
system.cpu.icache.tags.avg_refs          66874.285266                       # Average number of references to valid blocks.
system.cpu.icache.tags.warmup_cycle             94047                       # Cycle when the warmup percentage was hit.
system.cpu.icache.tags.occ_blocks::.cpu.inst   380.385752                       # Average occupied blocks per requestor
system.cpu.icache.tags.occ_percent::.cpu.inst     0.742941                       # Average percentage of cache occupancy
system.cpu.icache.tags.occ_percent::total     0.742941                       # Average percentage of cache occupancy
system.cpu.icache.tags.occ_task_id_blocks::1024          428                       # Occupied blocks per task id
system.cpu.icache.tags.age_task_id_blocks_1024::4          428                       # Occupied blocks per task id
system.cpu.icache.tags.occ_task_id_percent::1024     0.835938                       # Percentage of cache occupancy per task id
system.cpu.icache.tags.tag_accesses          85332226                       # Number of tag accesses
system.cpu.icache.tags.data_accesses         85332226                       # Number of data accesses
system.cpu.icache.tags.power_state.pwrStateResidencyTicks::UNDEFINED 582162996697                       # Cumulative time (in ticks) in various power states
system.cpu.itb.instHits                             0                       # ITB inst hits
system.cpu.itb.instMisses                           0                       # ITB inst misses
system.cpu.itb.readHits                             0                       # DTB read hits
system.cpu.itb.readMisses                           0                       # DTB read misses
system.cpu.itb.writeHits                            0                       # DTB write hits
system.cpu.itb.writeMisses                          0                       # DTB write misses
system.cpu.itb.inserts                              0                       # Number of times an entry is inserted into the TLB
system.cpu.itb.flushTlb                             0                       # Number of times complete TLB was flushed
system.cpu.itb.flushTlbMva                          0                       # Number of times TLB was flushed by MVA
system.cpu.itb.flushTlbMvaAsid                      0                       # Number of times TLB was flushed by MVA & ASID
system.cpu.itb.flushTlbAsid                         0                       # Number of times TLB was flushed by ASID
system.cpu.itb.flushedEntries                       0                       # Number of entries that have been flushed from TLB
system.cpu.itb.alignFaults                          0                       # Number of TLB faults due to alignment restrictions
system.cpu.itb.prefetchFaults                       0                       # Number of TLB faults due to prefetch
system.cpu.itb.domainFaults                         0                       # Number of TLB faults due to domain restrictions
system.cpu.itb.permsFaults                          0                       # Number of TLB faults due to permissions restrictions
system.cpu.itb.readAccesses                         0                       # DTB read accesses
system.cpu.itb.writeAccesses                        0                       # DTB write accesses
system.cpu.itb.instAccesses                         0                       # ITB inst accesses
system.cpu.itb.hits                                 0                       # Total TLB (inst and data) hits
system.cpu.itb.misses                               0                       # Total TLB (inst and data) misses
system.cpu.itb.accesses                             0                       # Total TLB (inst and data) accesses
system.cpu.itb.stage2_mmu.stage2_tlb.instHits            0                       # ITB inst hits
system.cpu.itb.stage2_mmu.stage2_tlb.instMisses            0                       # ITB inst misses
system.cpu.itb.stage2_mmu.stage2_tlb.readHits            0                       # DTB read hits
system.cpu.itb.stage2_mmu.stage2_tlb.readMisses            0                       # DTB read misses
system.cpu.itb.stage2_mmu.stage2_tlb.writeHits            0                       # DTB write hits
system.cpu.itb.stage2_mmu.stage2_tlb.writeMisses            0                       # DTB write misses
system.cpu.itb.stage2_mmu.stage2_tlb.inserts            0                       # Number of times an entry is inserted into the TLB
system.cpu.itb.stage2_mmu.stage2_tlb.flushTlb            0                       # Number of times complete TLB was flushed
system.cpu.itb.stage2_mmu.stage2_tlb.flushTlbMva            0                       # Number of times TLB was flushed by MVA
system.cpu.itb.stage2_mmu.stage2_tlb.flushTlbMvaAsid            0                       # Number of times TLB was flushed by MVA & ASID
system.cpu.itb.stage2_mmu.stage2_tlb.flushTlbAsid            0                       # Number of times TLB was flushed by ASID
system.cpu.itb.stage2_mmu.stage2_tlb.flushedEntries            0                       # Number of entries that have been flushed from TLB
system.cpu.itb.stage2_mmu.stage2_tlb.alignFaults            0                       # Number of TLB faults due to alignment restrictions
system.cpu.itb.stage2_mmu.stage2_tlb.prefetchFaults            0                       # Number of TLB faults due to prefetch
system.cpu.itb.stage2_mmu.stage2_tlb.domainFaults            0                       # Number of TLB faults due to domain restrictions
system.cpu.itb.stage2_mmu.stage2_tlb.permsFaults            0                       # Number of TLB faults due to permissions restrictions
system.cpu.itb.stage2_mmu.stage2_tlb.readAccesses            0                       # DTB read accesses
system.cpu.itb.stage2_mmu.stage2_tlb.writeAccesses            0                       # DTB write accesses
system.cpu.itb.stage2_mmu.stage2_tlb.instAccesses            0                       # ITB inst accesses
system.cpu.itb.stage2_mmu.stage2_tlb.hits            0                       # Total TLB (inst and data) hits
system.cpu.itb.stage2_mmu.stage2_tlb.misses            0                       # Total TLB (inst and data) misses
system.cpu.itb.stage2_mmu.stage2_tlb.accesses            0                       # Total TLB (inst and data) accesses
system.cpu.itb.stage2_mmu.stage2_tlb.walker.walks            0                       # Table walker walks requested
system.cpu.itb.stage2_mmu.stage2_tlb.walker.requestOrigin_Requested::Data            0                       # Table walker requests started/completed, data/inst
system.cpu.itb.stage2_mmu.stage2_tlb.walker.requestOrigin_Requested::Inst            0                       # Table walker requests started/completed, data/inst
system.cpu.itb.stage2_mmu.stage2_tlb.walker.requestOrigin_Requested::total            0                       # Table walker requests started/completed, data/inst
system.cpu.itb.stage2_mmu.stage2_tlb.walker.requestOrigin_Completed::Data            0                       # Table walker requests started/completed, data/inst
system.cpu.itb.stage2_mmu.stage2_tlb.walker.requestOrigin_Completed::Inst            0                       # Table walker requests started/completed, data/inst
system.cpu.itb.stage2_mmu.stage2_tlb.walker.requestOrigin_Completed::total            0                       # Table walker requests started/completed, data/inst
system.cpu.itb.stage2_mmu.stage2_tlb.walker.requestOrigin::total            0                       # Table walker requests started/completed, data/inst
system.cpu.itb.stage2_mmu.stage2_tlb.walker.power_state.pwrStateResidencyTicks::UNDEFINED 582162996697                       # Cumulative time (in ticks) in various power states
system.cpu.itb.walker.walks                         0                       # Table walker walks requested
system.cpu.itb.walker.requestOrigin_Requested::Data            0                       # Table walker requests started/completed, data/inst
system.cpu.itb.walker.requestOrigin_Requested::Inst            0                       # Table walker requests started/completed, data/inst
system.cpu.itb.walker.requestOrigin_Requested::total            0                       # Table walker requests started/completed, data/inst
system.cpu.itb.walker.requestOrigin_Completed::Data            0                       # Table walker requests started/completed, data/inst
system.cpu.itb.walker.requestOrigin_Completed::Inst            0                       # Table walker requests started/completed, data/inst
system.cpu.itb.walker.requestOrigin_Completed::total            0                       # Table walker requests started/completed, data/inst
system.cpu.itb.walker.requestOrigin::total            0                       # Table walker requests started/completed, data/inst
system.cpu.itb.walker.power_state.pwrStateResidencyTicks::UNDEFINED 582162996697                       # Cumulative time (in ticks) in various power states
system.cpu.power_state.pwrStateResidencyTicks::ON 582162996697                       # Cumulative time (in ticks) in various power states
system.cpu.thread_0.numInsts                100000000                       # Number of Instructions committed
system.cpu.thread_0.numOps                  184218801                       # Number of Ops committed
system.cpu.thread_0.numMemRefs                      0                       # Number of Memory References
system.cpu_clk_domain.clock                       667                       # Clock period in ticks
system.cpu_voltage_domain.voltage                   1                       # Voltage in Volts
system.l2.demand_hits::.cpu.inst                   53                       # number of demand (read+write) hits
system.l2.demand_hits::.cpu.data                   26                       # number of demand (read+write) hits
system.l2.demand_hits::total                       79                       # number of demand (read+write) hits
system.l2.overall_hits::.cpu.inst                  53                       # number of overall hits
system.l2.overall_hits::.cpu.data                  26                       # number of overall hits
system.l2.overall_hits::total                      79                       # number of overall hits
system.l2.demand_misses::.cpu.inst                585                       # number of demand (read+write) misses
system.l2.demand_misses::.cpu.data            5263307                       # number of demand (read+write) misses
system.l2.demand_misses::total                5263892                       # number of demand (read+write) misses
system.l2.overall_misses::.cpu.inst               585                       # number of overall misses
system.l2.overall_misses::.cpu.data           5263307                       # number of overall misses
system.l2.overall_misses::total               5263892                       # number of overall misses
system.l2.demand_miss_latency::.cpu.inst     51597786                       # number of demand (read+write) miss cycles
system.l2.demand_miss_latency::.cpu.data 462354396334                       # number of demand (read+write) miss cycles
system.l2.demand_miss_latency::total     462405994120                       # number of demand (read+write) miss cycles
system.l2.overall_miss_latency::.cpu.inst     51597786                       # number of overall miss cycles
system.l2.overall_miss_latency::.cpu.data 462354396334                       # number of overall miss cycles
system.l2.overall_miss_latency::total    462405994120                       # number of overall miss cycles
system.l2.demand_accesses::.cpu.inst              638                       # number of demand (read+write) accesses
system.l2.demand_accesses::.cpu.data          5263333                       # number of demand (read+write) accesses
system.l2.demand_accesses::total              5263971                       # number of demand (read+write) accesses
system.l2.overall_accesses::.cpu.inst             638                       # number of overall (read+write) accesses
system.l2.overall_accesses::.cpu.data         5263333                       # number of overall (read+write) accesses
system.l2.overall_accesses::total             5263971                       # number of overall (read+write) accesses
system.l2.demand_miss_rate::.cpu.inst        0.916928                       # miss rate for demand accesses
system.l2.demand_miss_rate::.cpu.data        0.999995                       # miss rate for demand accesses
system.l2.demand_miss_rate::total            0.999985                       # miss rate for demand accesses
system.l2.overall_miss_rate::.cpu.inst       0.916928                       # miss rate for overall accesses
system.l2.overall_miss_rate::.cpu.data       0.999995                       # miss rate for overall accesses
system.l2.overall_miss_rate::total           0.999985                       # miss rate for overall accesses
system.l2.demand_avg_miss_latency::.cpu.inst 88201.343590                       # average overall miss latency
system.l2.demand_avg_miss_latency::.cpu.data 87844.846659                       # average overall miss latency
system.l2.demand_avg_miss_latency::total 87844.886278                       # average overall miss latency
system.l2.overall_avg_miss_latency::.cpu.inst 88201.343590                       # average overall miss latency
system.l2.overall_avg_miss_latency::.cpu.data 87844.846659                       # average overall miss latency
system.l2.overall_avg_miss_latency::total 87844.886278                       # average overall miss latency
system.l2.blocked_cycles::no_mshrs                  0                       # number of cycles access was blocked
system.l2.blocked_cycles::no_targets                0                       # number of cycles access was blocked
system.l2.blocked::no_mshrs                         0                       # number of cycles access was blocked
system.l2.blocked::no_targets                       0                       # number of cycles access was blocked
system.l2.avg_blocked_cycles::no_mshrs            nan                       # average number of cycles each access was blocked
system.l2.avg_blocked_cycles::no_targets          nan                       # average number of cycles each access was blocked
system.l2.writebacks::.writebacks             5230284                       # number of writebacks
system.l2.writebacks::total                   5230284                       # number of writebacks
system.l2.demand_mshr_hits::.cpu.inst               1                       # number of demand (read+write) MSHR hits
system.l2.demand_mshr_hits::.cpu.data               6                       # number of demand (read+write) MSHR hits
system.l2.demand_mshr_hits::total                   7                       # number of demand (read+write) MSHR hits
system.l2.overall_mshr_hits::.cpu.inst              1                       # number of overall MSHR hits
system.l2.overall_mshr_hits::.cpu.data              6                       # number of overall MSHR hits
system.l2.overall_mshr_hits::total                  7                       # number of overall MSHR hits
system.l2.demand_mshr_misses::.cpu.inst           584                       # number of demand (read+write) MSHR misses
system.l2.demand_mshr_misses::.cpu.data       5263301                       # number of demand (read+write) MSHR misses
system.l2.demand_mshr_misses::total           5263885                       # number of demand (read+write) MSHR misses
system.l2.overall_mshr_misses::.cpu.inst          584                       # number of overall MSHR misses
system.l2.overall_mshr_misses::.cpu.data      5263301                       # number of overall MSHR misses
system.l2.overall_mshr_misses::total          5263885                       # number of overall MSHR misses
system.l2.demand_mshr_miss_latency::.cpu.inst     43557718                       # number of demand (read+write) MSHR miss cycles
system.l2.demand_mshr_miss_latency::.cpu.data 390434027955                       # number of demand (read+write) MSHR miss cycles
system.l2.demand_mshr_miss_latency::total 390477585673                       # number of demand (read+write) MSHR miss cycles
system.l2.overall_mshr_miss_latency::.cpu.inst     43557718                       # number of overall MSHR miss cycles
system.l2.overall_mshr_miss_latency::.cpu.data 390434027955                       # number of overall MSHR miss cycles
system.l2.overall_mshr_miss_latency::total 390477585673                       # number of overall MSHR miss cycles
system.l2.demand_mshr_miss_rate::.cpu.inst     0.915361                       # mshr miss rate for demand accesses
system.l2.demand_mshr_miss_rate::.cpu.data     0.999994                       # mshr miss rate for demand accesses
system.l2.demand_mshr_miss_rate::total       0.999984                       # mshr miss rate for demand accesses
system.l2.overall_mshr_miss_rate::.cpu.inst     0.915361                       # mshr miss rate for overall accesses
system.l2.overall_mshr_miss_rate::.cpu.data     0.999994                       # mshr miss rate for overall accesses
system.l2.overall_mshr_miss_rate::total      0.999984                       # mshr miss rate for overall accesses
system.l2.demand_avg_mshr_miss_latency::.cpu.inst 74585.133562                       # average overall mshr miss latency
system.l2.demand_avg_mshr_miss_latency::.cpu.data 74180.448345                       # average overall mshr miss latency
system.l2.demand_avg_mshr_miss_latency::total 74180.493243                       # average overall mshr miss latency
system.l2.overall_avg_mshr_miss_latency::.cpu.inst 74585.133562                       # average overall mshr miss latency
system.l2.overall_avg_mshr_miss_latency::.cpu.data 74180.448345                       # average overall mshr miss latency
system.l2.overall_avg_mshr_miss_latency::total 74180.493243                       # average overall mshr miss latency
system.l2.replacements                        5231211                       # number of replacements
system.l2.WritebackDirty_hits::.writebacks      5258960                       # number of WritebackDirty hits
system.l2.WritebackDirty_hits::total          5258960                       # number of WritebackDirty hits
system.l2.WritebackDirty_accesses::.writebacks      5258960                       # number of WritebackDirty accesses(hits+misses)
system.l2.WritebackDirty_accesses::total      5258960                       # number of WritebackDirty accesses(hits+misses)
system.l2.WritebackClean_hits::.writebacks          203                       # number of WritebackClean hits
system.l2.WritebackClean_hits::total              203                       # number of WritebackClean hits
system.l2.WritebackClean_accesses::.writebacks          203                       # number of WritebackClean accesses(hits+misses)
system.l2.WritebackClean_accesses::total          203                       # number of WritebackClean accesses(hits+misses)
system.l2.ReadExReq_hits::.cpu.data                 1                       # number of ReadExReq hits
system.l2.ReadExReq_hits::total                     1                       # number of ReadExReq hits
system.l2.ReadExReq_misses::.cpu.data         5263023                       # number of ReadExReq misses
system.l2.ReadExReq_misses::total             5263023                       # number of ReadExReq misses
system.l2.ReadExReq_miss_latency::.cpu.data 462328712832                       # number of ReadExReq miss cycles
system.l2.ReadExReq_miss_latency::total  462328712832                       # number of ReadExReq miss cycles
system.l2.ReadExReq_accesses::.cpu.data       5263024                       # number of ReadExReq accesses(hits+misses)
system.l2.ReadExReq_accesses::total           5263024                       # number of ReadExReq accesses(hits+misses)
system.l2.ReadExReq_miss_rate::.cpu.data     1.000000                       # miss rate for ReadExReq accesses
system.l2.ReadExReq_miss_rate::total         1.000000                       # miss rate for ReadExReq accesses
system.l2.ReadExReq_avg_miss_latency::.cpu.data 87844.706898                       # average ReadExReq miss latency
system.l2.ReadExReq_avg_miss_latency::total 87844.706898                       # average ReadExReq miss latency
system.l2.ReadExReq_mshr_misses::.cpu.data      5263023                       # number of ReadExReq MSHR misses
system.l2.ReadExReq_mshr_misses::total        5263023                       # number of ReadExReq MSHR misses
system.l2.ReadExReq_mshr_miss_latency::.cpu.data 390412577956                       # number of ReadExReq MSHR miss cycles
system.l2.ReadExReq_mshr_miss_latency::total 390412577956                       # number of ReadExReq MSHR miss cycles
system.l2.ReadExReq_mshr_miss_rate::.cpu.data     1.000000                       # mshr miss rate for ReadExReq accesses
system.l2.ReadExReq_mshr_miss_rate::total     1.000000                       # mshr miss rate for ReadExReq accesses
system.l2.ReadExReq_avg_mshr_miss_latency::.cpu.data 74180.291052                       # average ReadExReq mshr miss latency
system.l2.ReadExReq_avg_mshr_miss_latency::total 74180.291052                       # average ReadExReq mshr miss latency
system.l2.ReadCleanReq_hits::.cpu.inst             53                       # number of ReadCleanReq hits
system.l2.ReadCleanReq_hits::total                 53                       # number of ReadCleanReq hits
system.l2.ReadCleanReq_misses::.cpu.inst          585                       # number of ReadCleanReq misses
system.l2.ReadCleanReq_misses::total              585                       # number of ReadCleanReq misses
system.l2.ReadCleanReq_miss_latency::.cpu.inst     51597786                       # number of ReadCleanReq miss cycles
system.l2.ReadCleanReq_miss_latency::total     51597786                       # number of ReadCleanReq miss cycles
system.l2.ReadCleanReq_accesses::.cpu.inst          638                       # number of ReadCleanReq accesses(hits+misses)
system.l2.ReadCleanReq_accesses::total            638                       # number of ReadCleanReq accesses(hits+misses)
system.l2.ReadCleanReq_miss_rate::.cpu.inst     0.916928                       # miss rate for ReadCleanReq accesses
system.l2.ReadCleanReq_miss_rate::total      0.916928                       # miss rate for ReadCleanReq accesses
system.l2.ReadCleanReq_avg_miss_latency::.cpu.inst 88201.343590                       # average ReadCleanReq miss latency
system.l2.ReadCleanReq_avg_miss_latency::total 88201.343590                       # average ReadCleanReq miss latency
system.l2.ReadCleanReq_mshr_hits::.cpu.inst            1                       # number of ReadCleanReq MSHR hits
system.l2.ReadCleanReq_mshr_hits::total             1                       # number of ReadCleanReq MSHR hits
system.l2.ReadCleanReq_mshr_misses::.cpu.inst          584                       # number of ReadCleanReq MSHR misses
system.l2.ReadCleanReq_mshr_misses::total          584                       # number of ReadCleanReq MSHR misses
system.l2.ReadCleanReq_mshr_miss_latency::.cpu.inst     43557718                       # number of ReadCleanReq MSHR miss cycles
system.l2.ReadCleanReq_mshr_miss_latency::total     43557718                       # number of ReadCleanReq MSHR miss cycles
system.l2.ReadCleanReq_mshr_miss_rate::.cpu.inst     0.915361                       # mshr miss rate for ReadCleanReq accesses
system.l2.ReadCleanReq_mshr_miss_rate::total     0.915361                       # mshr miss rate for ReadCleanReq accesses
system.l2.ReadCleanReq_avg_mshr_miss_latency::.cpu.inst 74585.133562                       # average ReadCleanReq mshr miss latency
system.l2.ReadCleanReq_avg_mshr_miss_latency::total 74585.133562                       # average ReadCleanReq mshr miss latency
system.l2.ReadSharedReq_hits::.cpu.data            25                       # number of ReadSharedReq hits
system.l2.ReadSharedReq_hits::total                25                       # number of ReadSharedReq hits
system.l2.ReadSharedReq_misses::.cpu.data          284                       # number of ReadSharedReq misses
system.l2.ReadSharedReq_misses::total             284                       # number of ReadSharedReq misses
system.l2.ReadSharedReq_miss_latency::.cpu.data     25683502                       # number of ReadSharedReq miss cycles
system.l2.ReadSharedReq_miss_latency::total     25683502                       # number of ReadSharedReq miss cycles
system.l2.ReadSharedReq_accesses::.cpu.data          309                       # number of ReadSharedReq accesses(hits+misses)
system.l2.ReadSharedReq_accesses::total           309                       # number of ReadSharedReq accesses(hits+misses)
system.l2.ReadSharedReq_miss_rate::.cpu.data     0.919094                       # miss rate for ReadSharedReq accesses
system.l2.ReadSharedReq_miss_rate::total     0.919094                       # miss rate for ReadSharedReq accesses
system.l2.ReadSharedReq_avg_miss_latency::.cpu.data 90434.866197                       # average ReadSharedReq miss latency
system.l2.ReadSharedReq_avg_miss_latency::total 90434.866197                       # average ReadSharedReq miss latency
system.l2.ReadSharedReq_mshr_hits::.cpu.data            6                       # number of ReadSharedReq MSHR hits
system.l2.ReadSharedReq_mshr_hits::total            6                       # number of ReadSharedReq MSHR hits
system.l2.ReadSharedReq_mshr_misses::.cpu.data          278                       # number of ReadSharedReq MSHR misses
system.l2.ReadSharedReq_mshr_misses::total          278                       # number of ReadSharedReq MSHR misses
system.l2.ReadSharedReq_mshr_miss_latency::.cpu.data     21449999                       # number of ReadSharedReq MSHR miss cycles
system.l2.ReadSharedReq_mshr_miss_latency::total     21449999                       # number of ReadSharedReq MSHR miss cycles
system.l2.ReadSharedReq_mshr_miss_rate::.cpu.data     0.899676                       # mshr miss rate for ReadSharedReq accesses
system.l2.ReadSharedReq_mshr_miss_rate::total     0.899676                       # mshr miss rate for ReadSharedReq accesses
system.l2.ReadSharedReq_avg_mshr_miss_latency::.cpu.data 77158.269784                       # average ReadSharedReq mshr miss latency
system.l2.ReadSharedReq_avg_mshr_miss_latency::total 77158.269784                       # average ReadSharedReq mshr miss latency
system.l2.power_state.pwrStateResidencyTicks::UNDEFINED 582162996697                       # Cumulative time (in ticks) in various power states
system.l2.tags.tagsinuse                 32481.000089                       # Cycle average of tags in use
system.l2.tags.total_refs                    10523354                       # Total number of references to valid blocks.
system.l2.tags.sampled_refs                   5263979                       # Sample count of references to valid blocks.
system.l2.tags.avg_refs                      1.999125                       # Average number of references to valid blocks.
system.l2.tags.warmup_cycle                     80000                       # Cycle when the warmup percentage was hit.
system.l2.tags.occ_blocks::.writebacks       0.486821                       # Average occupied blocks per requestor
system.l2.tags.occ_blocks::.cpu.inst         5.332183                       # Average occupied blocks per requestor
system.l2.tags.occ_blocks::.cpu.data     32475.181085                       # Average occupied blocks per requestor
system.l2.tags.occ_percent::.writebacks      0.000015                       # Average percentage of cache occupancy
system.l2.tags.occ_percent::.cpu.inst        0.000163                       # Average percentage of cache occupancy
system.l2.tags.occ_percent::.cpu.data        0.991064                       # Average percentage of cache occupancy
system.l2.tags.occ_percent::total            0.991241                       # Average percentage of cache occupancy
system.l2.tags.occ_task_id_blocks::1024         32768                       # Occupied blocks per task id
system.l2.tags.age_task_id_blocks_1024::0           90                       # Occupied blocks per task id
system.l2.tags.age_task_id_blocks_1024::1          821                       # Occupied blocks per task id
system.l2.tags.age_task_id_blocks_1024::2         8186                       # Occupied blocks per task id
system.l2.tags.age_task_id_blocks_1024::3        23671                       # Occupied blocks per task id
system.l2.tags.occ_task_id_percent::1024            1                       # Percentage of cache occupancy per task id
system.l2.tags.tag_accesses                  89450867                       # Number of tag accesses
system.l2.tags.data_accesses                 89450867                       # Number of data accesses
system.l2.tags.power_state.pwrStateResidencyTicks::UNDEFINED 582162996697                       # Cumulative time (in ticks) in various power states
system.mem_ctrls.avgPriority_.writebacks::samples   5230284.00                       # Average QoS priority value for accepted requests
system.mem_ctrls.avgPriority_.cpu.inst::samples       584.00                       # Average QoS priority value for accepted requests
system.mem_ctrls.avgPriority_.cpu.data::samples   5263301.00                       # Average QoS priority value for accepted requests
system.mem_ctrls.priorityMinLatency      0.000000018750                       # per QoS priority minimum request to response latency (s)
system.mem_ctrls.priorityMaxLatency      0.000605745872                       # per QoS priority maximum request to response latency (s)
system.mem_ctrls.numReadWriteTurnArounds       326852                       # Number of turnarounds from READ to WRITE
system.mem_ctrls.numWriteReadTurnArounds       326852                       # Number of turnarounds from WRITE to READ
system.mem_ctrls.numStayReadState            15571547                       # Number of times bus staying in READ state
system.mem_ctrls.numStayWriteState            4915508                       # Number of times bus staying in WRITE state
system.mem_ctrls.readReqs                     5263885                       # Number of read requests accepted
system.mem_ctrls.writeReqs                    5230284                       # Number of write requests accepted
system.mem_ctrls.readBursts                   5263885                       # Number of controller read bursts, including those serviced by the write queue
system.mem_ctrls.writeBursts                  5230284                       # Number of controller write bursts, including those merged in the write queue
system.mem_ctrls.servicedByWrQ                      0                       # Number of controller read bursts serviced by the write queue
system.mem_ctrls.mergedWrBursts                     0                       # Number of controller write bursts merged with an existing one
system.mem_ctrls.neitherReadNorWriteReqs            0                       # Number of requests that are neither read nor write
system.mem_ctrls.avgRdQLen                       1.01                       # Average read queue length when enqueuing
system.mem_ctrls.avgWrQLen                      25.68                       # Average write queue length when enqueuing
system.mem_ctrls.numRdRetry                         0                       # Number of times read queue was full causing retry
system.mem_ctrls.numWrRetry                         0                       # Number of times write queue was full causing retry
system.mem_ctrls.readPktSize::0                     0                       # Read request sizes (log2)
system.mem_ctrls.readPktSize::1                     0                       # Read request sizes (log2)
system.mem_ctrls.readPktSize::2                     0                       # Read request sizes (log2)
system.mem_ctrls.readPktSize::3                     0                       # Read request sizes (log2)
system.mem_ctrls.readPktSize::4                     0                       # Read request sizes (log2)
system.mem_ctrls.readPktSize::5                     0                       # Read request sizes (log2)
system.mem_ctrls.readPktSize::6               5263885                       # Read request sizes (log2)
system.mem_ctrls.writePktSize::0                    0                       # Write request sizes (log2)
system.mem_ctrls.writePktSize::1                    0                       # Write request sizes (log2)
system.mem_ctrls.writePktSize::2                    0                       # Write request sizes (log2)
system.mem_ctrls.writePktSize::3                    0                       # Write request sizes (log2)
system.mem_ctrls.writePktSize::4                    0                       # Write request sizes (log2)
system.mem_ctrls.writePktSize::5                    0                       # Write request sizes (log2)
system.mem_ctrls.writePktSize::6              5230284                       # Write request sizes (log2)
system.mem_ctrls.rdQLenPdf::0                 5262607                       # What read queue length does an incoming req see
system.mem_ctrls.rdQLenPdf::1                    1251                       # What read queue length does an incoming req see
system.mem_ctrls.rdQLenPdf::2                      25                       # What read queue length does an incoming req see
system.mem_ctrls.rdQLenPdf::3                       2                       # What read queue length does an incoming req see
system.mem_ctrls.rdQLenPdf::4                       0                       # What read queue length does an incoming req see
system.mem_ctrls.rdQLenPdf::5                       0                       # What read queue length does an incoming req see
system.mem_ctrls.rdQLenPdf::6                       0                       # What read queue length does an incoming req see
system.mem_ctrls.rdQLenPdf::7                       0                       # What read queue length does an incoming req see
system.mem_ctrls.rdQLenPdf::8                       0                       # What read queue length does an incoming req see
system.mem_ctrls.rdQLenPdf::9                       0                       # What read queue length does an incoming req see
system.mem_ctrls.rdQLenPdf::10                      0                       # What read queue length does an incoming req see
[...]
system.mem_ctrls.dram.bw_write::.writebacks    574990472                       # Write bandwidth from this memory (bytes/s)
system.mem_ctrls.dram.bw_write::total       574990472                       # Write bandwidth from this memory (bytes/s)
system.mem_ctrls.dram.bw_total::.writebacks    574990472                       # Total bandwidth to/from this memory (bytes/s)
system.mem_ctrls.dram.bw_total::.cpu.inst        64202                       # Total bandwidth to/from this memory (bytes/s)
system.mem_ctrls.dram.bw_total::.cpu.data    578620190                       # Total bandwidth to/from this memory (bytes/s)
system.mem_ctrls.dram.bw_total::total      1153674864                       # Total bandwidth to/from this memory (bytes/s)
system.mem_ctrls.dram.readBursts              5263885                       # Number of DRAM read bursts
system.mem_ctrls.dram.writeBursts             5230257                       # Number of DRAM write bursts
system.mem_ctrls.dram.perBankRdBursts::0       328923                       # Per bank write bursts
system.mem_ctrls.dram.perBankRdBursts::1       329078                       # Per bank write bursts
system.mem_ctrls.dram.perBankRdBursts::2       329071                       # Per bank write bursts
system.mem_ctrls.dram.perBankRdBursts::3       329066                       # Per bank write bursts
system.mem_ctrls.dram.perBankRdBursts::4       329003                       # Per bank write bursts
system.mem_ctrls.dram.perBankRdBursts::5       329073                       # Per bank write bursts
system.mem_ctrls.dram.perBankRdBursts::6       329077                       # Per bank write bursts
system.mem_ctrls.dram.perBankRdBursts::7       329028                       # Per bank write bursts
system.mem_ctrls.dram.perBankRdBursts::8       328901                       # Per bank write bursts
system.mem_ctrls.dram.perBankRdBursts::9       328870                       # Per bank write bursts
system.mem_ctrls.dram.perBankRdBursts::10       328904                       # Per bank write bursts
system.mem_ctrls.dram.perBankRdBursts::11       328917                       # Per bank write bursts
system.mem_ctrls.dram.perBankRdBursts::12       329017                       # Per bank write bursts
system.mem_ctrls.dram.perBankRdBursts::13       329020                       # Per bank write bursts
system.mem_ctrls.dram.perBankRdBursts::14       328994                       # Per bank write bursts
system.mem_ctrls.dram.perBankRdBursts::15       328943                       # Per bank write bursts
system.mem_ctrls.dram.perBankWrBursts::0       326789                       # Per bank write bursts
system.mem_ctrls.dram.perBankWrBursts::1       326941                       # Per bank write bursts
system.mem_ctrls.dram.perBankWrBursts::2       326929                       # Per bank write bursts
system.mem_ctrls.dram.perBankWrBursts::3       327006                       # Per bank write bursts
system.mem_ctrls.dram.perBankWrBursts::4       326926                       # Per bank write bursts
system.mem_ctrls.dram.perBankWrBursts::5       326985                       # Per bank write bursts
system.mem_ctrls.dram.perBankWrBursts::6       326986                       # Per bank write bursts
system.mem_ctrls.dram.perBankWrBursts::7       326958                       # Per bank write bursts
system.mem_ctrls.dram.perBankWrBursts::8       326785                       # Per bank write bursts
system.mem_ctrls.dram.perBankWrBursts::9       326784                       # Per bank write bursts
system.mem_ctrls.dram.perBankWrBursts::10       326784                       # Per bank write bursts
system.mem_ctrls.dram.perBankWrBursts::11       326839                       # Per bank write bursts
system.mem_ctrls.dram.perBankWrBursts::12       326913                       # Per bank write bursts
system.mem_ctrls.dram.perBankWrBursts::13       326906                       # Per bank write bursts
system.mem_ctrls.dram.perBankWrBursts::14       326861                       # Per bank write bursts
system.mem_ctrls.dram.perBankWrBursts::15       326865                       # Per bank write bursts
system.mem_ctrls.dram.totQLat             56980849646                       # Total ticks spent queuing
system.mem_ctrls.dram.totBusLat           26319425000                       # Total ticks spent in databus transfers
system.mem_ctrls.dram.totMemAccLat       155678693396                       # Total ticks spent from burst creation until serviced by the DRAM
system.mem_ctrls.dram.avgQLat                10824.87                       # Average queueing delay per DRAM burst
system.mem_ctrls.dram.avgBusLat               5000.00                       # Average bus latency per DRAM burst
system.mem_ctrls.dram.avgMemAccLat           29574.87                       # Average memory access latency per DRAM burst
system.mem_ctrls.dram.readRowHits             4827728                       # Number of row buffer hits during reads
system.mem_ctrls.dram.writeRowHits            4857891                       # Number of row buffer hits during writes
system.mem_ctrls.dram.readRowHitRate            91.71                       # Row buffer hit rate for reads
system.mem_ctrls.dram.writeRowHitRate           92.88                       # Row buffer hit rate for writes
system.mem_ctrls.dram.bytesPerActivate::samples       808522                       # Bytes accessed per row activation
system.mem_ctrls.dram.bytesPerActivate::mean   830.682198                       # Bytes accessed per row activation
system.mem_ctrls.dram.bytesPerActivate::gmean   720.861099                       # Bytes accessed per row activation
system.mem_ctrls.dram.bytesPerActivate::stdev   305.912465                       # Bytes accessed per row activation
system.mem_ctrls.dram.bytesPerActivate::0-127        21794      2.70%      2.70% # Bytes accessed per row activation
system.mem_ctrls.dram.bytesPerActivate::128-255        47222      5.84%      8.54% # Bytes accessed per row activation
system.mem_ctrls.dram.bytesPerActivate::256-383        37108      4.59%     13.13% # Bytes accessed per row activation
system.mem_ctrls.dram.bytesPerActivate::384-511        36671      4.54%     17.66% # Bytes accessed per row activation
system.mem_ctrls.dram.bytesPerActivate::512-639        45275      5.60%     23.26% # Bytes accessed per row activation
system.mem_ctrls.dram.bytesPerActivate::640-767        30036      3.71%     26.98% # Bytes accessed per row activation
system.mem_ctrls.dram.bytesPerActivate::768-895        42772      5.29%     32.27% # Bytes accessed per row activation
system.mem_ctrls.dram.bytesPerActivate::896-1023        30981      3.83%     36.10% # Bytes accessed per row activation
system.mem_ctrls.dram.bytesPerActivate::1024-1151       516663     63.90%    100.00% # Bytes accessed per row activation
system.mem_ctrls.dram.bytesPerActivate::total       808522                       # Bytes accessed per row activation
system.mem_ctrls.dram.bytesRead             336888640                       # Total number of bytes read from DRAM
system.mem_ctrls.dram.bytesWritten          334736448                       # Total number of bytes written to DRAM
system.mem_ctrls.dram.avgRdBW              578.684392                       # Average DRAM read bandwidth in MiBytes/s
system.mem_ctrls.dram.avgWrBW              574.987503                       # Average DRAM write bandwidth in MiBytes/s
system.mem_ctrls.dram.peakBW                 12800.00                       # Theoretical peak bandwidth in MiByte/s
system.mem_ctrls.dram.busUtil                    9.01                       # Data bus utilization in percentage
system.mem_ctrls.dram.busUtilRead                4.52                       # Data bus utilization in percentage for reads
system.mem_ctrls.dram.busUtilWrite               4.49                       # Data bus utilization in percentage for writes
system.mem_ctrls.dram.pageHitRate               92.30                       # Row buffer hit rate, read and write combined
system.mem_ctrls.dram.power_state.pwrStateResidencyTicks::UNDEFINED 582162996697                       # Cumulative time (in ticks) in various power states
system.mem_ctrls.dram.rank0.actEnergy      2886609180                       # Energy for activate commands per rank (pJ)
system.mem_ctrls.dram.rank0.preEnergy      1534265370                       # Energy for precharge commands per rank (pJ)
system.mem_ctrls.dram.rank0.readEnergy    18794757660                       # Energy for read commands per rank (pJ)
system.mem_ctrls.dram.rank0.writeEnergy   13653014400                       # Energy for write commands per rank (pJ)
system.mem_ctrls.dram.rank0.refreshEnergy 45955403520.000008                       # Energy for refresh commands per rank (pJ)
system.mem_ctrls.dram.rank0.actBackEnergy 138434569050                       # Energy for active background per rank (pJ)
system.mem_ctrls.dram.rank0.preBackEnergy 106974111840                       # Energy for precharge background per rank (pJ)
system.mem_ctrls.dram.rank0.actPowerDownEnergy            0                       # Energy for active power-down per rank (pJ)
system.mem_ctrls.dram.rank0.prePowerDownEnergy            0                       # Energy for precharge power-down per rank (pJ)
system.mem_ctrls.dram.rank0.selfRefreshEnergy            0                       # Energy for self refresh per rank (pJ)
system.mem_ctrls.dram.rank0.totalEnergy  328232731020                       # Total energy per rank (pJ)
system.mem_ctrls.dram.rank0.averagePower   563.815861                       # Core power per rank (mW)
system.mem_ctrls.dram.rank0.totalIdleTime            0                       # Total Idle time Per DRAM Rank
system.mem_ctrls.dram.rank0.pwrStateTime::IDLE 274012061417                       # Time in different power states
system.mem_ctrls.dram.rank0.pwrStateTime::REF  19439680000                       # Time in different power states
system.mem_ctrls.dram.rank0.pwrStateTime::SREF            0                       # Time in different power states
system.mem_ctrls.dram.rank0.pwrStateTime::PRE_PDN            0                       # Time in different power states
system.mem_ctrls.dram.rank0.pwrStateTime::ACT 288711255280                       # Time in different power states
system.mem_ctrls.dram.rank0.pwrStateTime::ACT_PDN            0                       # Time in different power states
system.mem_ctrls.dram.rank1.actEnergy      2886245040                       # Energy for activate commands per rank (pJ)
system.mem_ctrls.dram.rank1.preEnergy      1534075620                       # Energy for precharge commands per rank (pJ)
system.mem_ctrls.dram.rank1.readEnergy    18789381240                       # Energy for read commands per rank (pJ)
system.mem_ctrls.dram.rank1.writeEnergy   13648927140                       # Energy for write commands per rank (pJ)
system.mem_ctrls.dram.rank1.refreshEnergy 45955403520.000008                       # Energy for refresh commands per rank (pJ)
system.mem_ctrls.dram.rank1.actBackEnergy 138313303830                       # Energy for active background per rank (pJ)
system.mem_ctrls.dram.rank1.preBackEnergy 107076229920                       # Energy for precharge background per rank (pJ)
system.mem_ctrls.dram.rank1.actPowerDownEnergy            0                       # Energy for active power-down per rank (pJ)
system.mem_ctrls.dram.rank1.prePowerDownEnergy            0                       # Energy for precharge power-down per rank (pJ)
system.mem_ctrls.dram.rank1.selfRefreshEnergy            0                       # Energy for self refresh per rank (pJ)
system.mem_ctrls.dram.rank1.totalEnergy  328203566310                       # Total energy per rank (pJ)
system.mem_ctrls.dram.rank1.averagePower   563.765763                       # Core power per rank (mW)
system.mem_ctrls.dram.rank1.totalIdleTime            0                       # Total Idle time Per DRAM Rank
system.mem_ctrls.dram.rank1.pwrStateTime::IDLE 274277428765                       # Time in different power states
system.mem_ctrls.dram.rank1.pwrStateTime::REF  19439680000                       # Time in different power states
system.mem_ctrls.dram.rank1.pwrStateTime::SREF            0                       # Time in different power states
system.mem_ctrls.dram.rank1.pwrStateTime::PRE_PDN            0                       # Time in different power states
system.mem_ctrls.dram.rank1.pwrStateTime::ACT 288445887932                       # Time in different power states
system.mem_ctrls.dram.rank1.pwrStateTime::ACT_PDN            0                       # Time in different power states
system.mem_ctrls.power_state.pwrStateResidencyTicks::UNDEFINED 582162996697                       # Cumulative time (in ticks) in various power states
system.membus.trans_dist::ReadResp                862                       # Transaction distribution
system.membus.trans_dist::WritebackDirty      5230284                       # Transaction distribution
system.membus.trans_dist::CleanEvict              393                       # Transaction distribution
system.membus.trans_dist::ReadExReq           5263023                       # Transaction distribution
system.membus.trans_dist::ReadExResp          5263023                       # Transaction distribution
system.membus.trans_dist::ReadSharedReq           862                       # Transaction distribution
system.membus.pkt_count_system.l2.mem_side_port::system.mem_ctrls.port     15758447                       # Packet count per connected requestor and responder (bytes)
system.membus.pkt_count::total               15758447                       # Packet count per connected requestor and responder (bytes)
system.membus.pkt_size_system.l2.mem_side_port::system.mem_ctrls.port    671626816                       # Cumulative packet size per connected requestor and responder (bytes)
system.membus.pkt_size::total               671626816                       # Cumulative packet size per connected requestor and responder (bytes)
system.membus.snoops                                0                       # Total snoops (count)
system.membus.snoopTraffic                          0                       # Total snoop traffic (bytes)
system.membus.snoop_fanout::samples           5263885                       # Request fanout histogram
system.membus.snoop_fanout::mean                    0                       # Request fanout histogram
system.membus.snoop_fanout::stdev                   0                       # Request fanout histogram
system.membus.snoop_fanout::underflows              0      0.00%      0.00% # Request fanout histogram
system.membus.snoop_fanout::0                 5263885    100.00%    100.00% # Request fanout histogram
system.membus.snoop_fanout::1                       0      0.00%    100.00% # Request fanout histogram
system.membus.snoop_fanout::overflows               0      0.00%    100.00% # Request fanout histogram
system.membus.snoop_fanout::min_value               0                       # Request fanout histogram
system.membus.snoop_fanout::max_value               0                       # Request fanout histogram
system.membus.snoop_fanout::total             5263885                       # Request fanout histogram
system.membus.power_state.pwrStateResidencyTicks::UNDEFINED 582162996697                       # Cumulative time (in ticks) in various power states
system.membus.reqLayer0.occupancy         34964516461                       # Layer occupancy (ticks)
system.membus.reqLayer0.utilization               6.0                       # Layer utilization (%)
system.membus.respLayer1.occupancy        27703005702                       # Layer occupancy (ticks)
system.membus.respLayer1.utilization              4.8                       # Layer utilization (%)
system.tol2bus.trans_dist::ReadResp               947                       # Transaction distribution
system.tol2bus.trans_dist::WritebackDirty     10489244                       # Transaction distribution
system.tol2bus.trans_dist::WritebackClean          210                       # Transaction distribution
system.tol2bus.trans_dist::CleanEvict            1204                       # Transaction distribution
system.tol2bus.trans_dist::ReadExReq          5263024                       # Transaction distribution
system.tol2bus.trans_dist::ReadExResp         5263024                       # Transaction distribution
system.tol2bus.trans_dist::ReadCleanReq           638                       # Transaction distribution
system.tol2bus.trans_dist::ReadSharedReq          309                       # Transaction distribution
system.tol2bus.pkt_count_system.cpu.icache.mem_side_port::system.l2.cpu_side_port         1486                       # Packet count per connected requestor and responder (bytes)
system.tol2bus.pkt_count_system.cpu.dcache.mem_side_port::system.l2.cpu_side_port     15785903                       # Packet count per connected requestor and responder (bytes)
system.tol2bus.pkt_count::total              15787389                       # Packet count per connected requestor and responder (bytes)
system.tol2bus.pkt_size_system.cpu.icache.mem_side_port::system.l2.cpu_side_port        54272                       # Cumulative packet size per connected requestor and responder (bytes)
system.tol2bus.pkt_size_system.cpu.dcache.mem_side_port::system.l2.cpu_side_port    673426752                       # Cumulative packet size per connected requestor and responder (bytes)
system.tol2bus.pkt_size::total              673481024                       # Cumulative packet size per connected requestor and responder (bytes)
system.tol2bus.snoops                         5231211                       # Total snoops (count)
system.tol2bus.snoopTraffic                 334738176                       # Total snoop traffic (bytes)
system.tol2bus.snoop_fanout::samples         10495182                       # Request fanout histogram
system.tol2bus.snoop_fanout::mean            0.000056                       # Request fanout histogram
system.tol2bus.snoop_fanout::stdev           0.007504                       # Request fanout histogram
system.tol2bus.snoop_fanout::underflows             0      0.00%      0.00% # Request fanout histogram
system.tol2bus.snoop_fanout::0               10494591     99.99%     99.99% # Request fanout histogram
system.tol2bus.snoop_fanout::1                    591      0.01%    100.00% # Request fanout histogram
system.tol2bus.snoop_fanout::2                      0      0.00%    100.00% # Request fanout histogram
system.tol2bus.snoop_fanout::overflows              0      0.00%    100.00% # Request fanout histogram
system.tol2bus.snoop_fanout::min_value              0                       # Request fanout histogram
system.tol2bus.snoop_fanout::max_value              1                       # Request fanout histogram
system.tol2bus.snoop_fanout::total           10495182                       # Request fanout histogram
system.tol2bus.power_state.pwrStateResidencyTicks::UNDEFINED 582162996697                       # Cumulative time (in ticks) in various power states
system.tol2bus.reqLayer0.occupancy        14034852586                       # Layer occupancy (ticks)
system.tol2bus.reqLayer0.utilization              2.4                       # Layer utilization (%)
system.tol2bus.respLayer0.occupancy           1277304                       # Layer occupancy (ticks)
system.tol2bus.respLayer0.utilization             0.0                       # Layer utilization (%)
system.tol2bus.respLayer1.occupancy       10531933329                       # Layer occupancy (ticks)
system.tol2bus.respLayer1.utilization             1.8                       # Layer utilization (%)
system.voltage_domain.voltage                       1                       # Voltage in Volts

---------- End Simulation Statistics   ----------
