
---------- Begin Simulation Statistics ----------
final_tick                               109272769747                       # Number of ticks from beginning of simulation (restored from checkpoints and never reset)
host_inst_rate                                 158956                       # Simulator instruction rate (inst/s)
host_mem_usage                                 678612                       # Number of bytes of host memory used
host_op_rate                                   159268                       # Simulator op (including micro ops) rate (op/s)
host_seconds                                   629.11                       # Real time elapsed on the host
host_tick_rate                              173695203                       # Simulator tick rate (ticks/s)
sim_freq                                 1000000000000                       # Frequency of simulated ticks
sim_insts                                   100000001                       # Number of instructions simulated
sim_ops                                     100196356                       # Number of ops (including micro ops) simulated
sim_seconds                                  0.109273                       # Number of seconds simulated
sim_ticks                                109272769747                       # Number of ticks simulated
system.cpu.committedInsts                   100000001                       # Number of instructions committed
system.cpu.committedOps                     100196356                       # Number of ops (including micro ops) committed
system.cpu.cpi                               1.638272                       # CPI: cycles per instruction
system.cpu.discardedOps                        189407                       # Number of ops (including micro ops) which were discarded before commit
system.cpu.idleCycles                        31157783                       # Total number of cycles that the object has spent stopped
system.cpu.ipc                               0.610399                       # IPC: instructions per cycle
system.cpu.numCycles                        163827241                       # number of cpu cycles simulated
system.cpu.numFetchSuspends                         0                       # Number of times Execute suspended instruction fetching
system.cpu.numWorkItemsCompleted                    0                       # number of work items this cpu completed
system.cpu.numWorkItemsStarted                      0                       # number of work items this cpu started
system.cpu.op_class_0::No_OpClass                   0      0.00%      0.00% # Class of committed instruction
system.cpu.op_class_0::IntAlu                46526879     46.44%     46.44% # Class of committed instruction
system.cpu.op_class_0::IntMult                  20723      0.02%     46.46% # Class of committed instruction
system.cpu.op_class_0::IntDiv                       0      0.00%     46.46% # Class of committed instruction
system.cpu.op_class_0::FloatAdd                     0      0.00%     46.46% # Class of committed instruction
system.cpu.op_class_0::FloatCmp                     0      0.00%     46.46% # Class of committed instruction
system.cpu.op_class_0::FloatCvt                     0      0.00%     46.46% # Class of committed instruction
system.cpu.op_class_0::FloatMult                    0      0.00%     46.46% # Class of committed instruction
system.cpu.op_class_0::FloatMultAcc                 0      0.00%     46.46% # Class of committed instruction
system.cpu.op_class_0::FloatDiv                     0      0.00%     46.46% # Class of committed instruction
system.cpu.op_class_0::FloatMisc                    0      0.00%     46.46% # Class of committed instruction
system.cpu.op_class_0::FloatSqrt                    0      0.00%     46.46% # Class of committed instruction
system.cpu.op_class_0::SimdAdd                      0      0.00%     46.46% # Class of committed instruction
system.cpu.op_class_0::SimdAddAcc                   0      0.00%     46.46% # Class of committed instruction
system.cpu.op_class_0::SimdAlu                      0      0.00%     46.46% # Class of committed instruction
system.cpu.op_class_0::SimdCmp                      0      0.00%     46.46% # Class of committed instruction
system.cpu.op_class_0::SimdCvt                      0      0.00%     46.46% # Class of committed instruction
system.cpu.op_class_0::SimdMisc                     0      0.00%     46.46% # Class of committed instruction
system.cpu.op_class_0::SimdMult                     0      0.00%     46.46% # Class of committed instruction
system.cpu.op_class_0::SimdMultAcc                  0      0.00%     46.46% # Class of committed instruction
system.cpu.op_class_0::SimdShift                    0      0.00%     46.46% # Class of committed instruction
system.cpu.op_class_0::SimdShiftAcc                 0      0.00%     46.46% # Class of committed instruction
system.cpu.op_class_0::SimdDiv                      0      0.00%     46.46% # Class of committed instruction
system.cpu.op_class_0::SimdSqrt                     0      0.00%     46.46% # Class of committed instruction
system.cpu.op_class_0::SimdFloatAdd                 0      0.00%     46.46% # Class of committed instruction
system.cpu.op_class_0::SimdFloatAlu                 0      0.00%     46.46% # Class of committed instruction
system.cpu.op_class_0::SimdFloatCmp                 0      0.00%     46.46% # Class of committed instruction
system.cpu.op_class_0::SimdFloatCvt                 0      0.00%     46.46% # Class of committed instruction
system.cpu.op_class_0::SimdFloatDiv                 0      0.00%     46.46% # Class of committed instruction
system.cpu.op_class_0::SimdFloatMisc               18      0.00%     46.46% # Class of committed instruction
system.cpu.op_class_0::SimdFloatMult                0      0.00%     46.46% # Class of committed instruction
system.cpu.op_class_0::SimdFloatMultAcc             0      0.00%     46.46% # Class of committed instruction
system.cpu.op_class_0::SimdFloatSqrt                0      0.00%     46.46% # Class of committed instruction
system.cpu.op_class_0::SimdReduceAdd                0      0.00%     46.46% # Class of committed instruction
system.cpu.op_class_0::SimdReduceAlu                0      0.00%     46.46% # Class of committed instruction
system.cpu.op_class_0::SimdReduceCmp                0      0.00%     46.46% # Class of committed instruction
system.cpu.op_class_0::SimdFloatReduceAdd            0      0.00%     46.46% # Class of committed instruction
system.cpu.op_class_0::SimdFloatReduceCmp            0      0.00%     46.46% # Class of committed instruction
system.cpu.op_class_0::SimdAes                      0      0.00%     46.46% # Class of committed instruction
system.cpu.op_class_0::SimdAesMix                   0      0.00%     46.46% # Class of committed instruction
system.cpu.op_class_0::SimdSha1Hash                 0      0.00%     46.46% # Class of committed instruction
system.cpu.op_class_0::SimdSha1Hash2                0      0.00%     46.46% # Class of committed instruction
system.cpu.op_class_0::SimdSha256Hash               0      0.00%     46.46% # Class of committed instruction
system.cpu.op_class_0::SimdSha256Hash2              0      0.00%     46.46% # Class of committed instruction
system.cpu.op_class_0::SimdShaSigma2                0      0.00%     46.46% # Class of committed instruction
system.cpu.op_class_0::SimdShaSigma3                0      0.00%     46.46% # Class of committed instruction
system.cpu.op_class_0::SimdPredAlu                  0      0.00%     46.46% # Class of committed instruction
system.cpu.op_class_0::MemRead               42690524     42.61%     89.06% # Class of committed instruction
system.cpu.op_class_0::MemWrite              10958212     10.94%    100.00% # Class of committed instruction
system.cpu.op_class_0::FloatMemRead                 0      0.00%    100.00% # Class of committed instruction
system.cpu.op_class_0::FloatMemWrite                0      0.00%    100.00% # Class of committed instruction
system.cpu.op_class_0::IprAccess                    0      0.00%    100.00% # Class of committed instruction
system.cpu.op_class_0::InstPrefetch                 0      0.00%    100.00% # Class of committed instruction
system.cpu.op_class_0::total                100196356                       # Class of committed instruction
system.cpu.tickCycles                       132669458                       # Number of cycles that the object actually ticked
system.cpu.workload.numSyscalls                    85                       # Number of system calls
system.membus.snoop_filter.hit_multi_requests            0                       # Number of requests hitting in the snoop filter with multiple (>1) holders of the requested data.
system.membus.snoop_filter.hit_multi_snoops            0                       # Number of snoops hitting in the snoop filter with multiple (>1) holders of the requested data.
system.membus.snoop_filter.hit_single_requests       168721                       # Number of requests hitting in the snoop filter with a single holder of the requested data.
system.membus.snoop_filter.hit_single_snoops            0                       # Number of snoops hitting in the snoop filter with a single holder of the requested data.
system.membus.snoop_filter.tot_requests        370580                       # Total number of requests made to the snoop filter.
system.membus.snoop_filter.tot_snoops               0                       # Total number of snoops made to the snoop filter.
system.tol2bus.snoop_filter.hit_multi_requests           78                       # Number of requests hitting in the snoop filter with multiple (>1) holders of the requested data.
system.tol2bus.snoop_filter.hit_multi_snoops            0                       # Number of snoops hitting in the snoop filter with multiple (>1) holders of the requested data.
system.tol2bus.snoop_filter.hit_single_requests       682100                       # Number of requests hitting in the snoop filter with a single holder of the requested data.
system.tol2bus.snoop_filter.hit_single_snoops          524                       # Number of snoops hitting in the snoop filter with a single holder of the requested data.
system.tol2bus.snoop_filter.tot_requests      1365664                       # Total number of requests made to the snoop filter.
system.tol2bus.snoop_filter.tot_snoops            524                       # Total number of snoops made to the snoop filter.
system.clk_domain.clock                          1000                       # Clock period in ticks
system.cpu.branchPred.lookups                 4485725                       # Number of BP lookups
system.cpu.branchPred.condPredicted           3735432                       # Number of conditional branches predicted
system.cpu.branchPred.condIncorrect             81001                       # Number of conditional branches incorrect
system.cpu.branchPred.BTBLookups              2103779                       # Number of BTB lookups
system.cpu.branchPred.BTBHits                 2101807                       # Number of BTB hits
system.cpu.branchPred.BTBHitPct             99.906264                       # BTB Hit Percentage
system.cpu.branchPred.RASUsed                   65387                       # Number of times the RAS was used to get a target.
system.cpu.branchPred.RASIncorrect                 15                       # Number of incorrect RAS predictions.
system.cpu.branchPred.indirectLookups             669                       # Number of indirect predictor lookups.
system.cpu.branchPred.indirectHits                288                       # Number of indirect target hits.
system.cpu.branchPred.indirectMisses              381                       # Number of indirect misses.
system.cpu.branchPred.indirectMispredicted          156                       # Number of mispredicted indirect branches.
system.cpu.dcache.demand_hits::.cpu.data     51329526                       # number of demand (read+write) hits
system.cpu.dcache.demand_hits::total         51329526                       # number of demand (read+write) hits
system.cpu.dcache.overall_hits::.cpu.data     51330037                       # number of overall hits
system.cpu.dcache.overall_hits::total        51330037                       # number of overall hits
system.cpu.dcache.demand_misses::.cpu.data       732903                       # number of demand (read+write) misses
system.cpu.dcache.demand_misses::total         732903                       # number of demand (read+write) misses
system.cpu.dcache.overall_misses::.cpu.data       740811                       # number of overall misses
system.cpu.dcache.overall_misses::total        740811                       # number of overall misses
system.cpu.dcache.demand_miss_latency::.cpu.data  28317097473                       # number of demand (read+write) miss cycles
system.cpu.dcache.demand_miss_latency::total  28317097473                       # number of demand (read+write) miss cycles
system.cpu.dcache.overall_miss_latency::.cpu.data  28317097473                       # number of overall miss cycles
system.cpu.dcache.overall_miss_latency::total  28317097473                       # number of overall miss cycles
system.cpu.dcache.demand_accesses::.cpu.data     52062429                       # number of demand (read+write) accesses
system.cpu.dcache.demand_accesses::total     52062429                       # number of demand (read+write) accesses
system.cpu.dcache.overall_accesses::.cpu.data     52070848                       # number of overall (read+write) accesses
system.cpu.dcache.overall_accesses::total     52070848                       # number of overall (read+write) accesses
system.cpu.dcache.demand_miss_rate::.cpu.data     0.014077                       # miss rate for demand accesses
system.cpu.dcache.demand_miss_rate::total     0.014077                       # miss rate for demand accesses
system.cpu.dcache.overall_miss_rate::.cpu.data     0.014227                       # miss rate for overall accesses
system.cpu.dcache.overall_miss_rate::total     0.014227                       # miss rate for overall accesses
system.cpu.dcache.demand_avg_miss_latency::.cpu.data 38636.896660                       # average overall miss latency
system.cpu.dcache.demand_avg_miss_latency::total 38636.896660                       # average overall miss latency
system.cpu.dcache.overall_avg_miss_latency::.cpu.data 38224.455999                       # average overall miss latency
system.cpu.dcache.overall_avg_miss_latency::total 38224.455999                       # average overall miss latency
system.cpu.dcache.blocked_cycles::no_mshrs       159795                       # number of cycles access was blocked
system.cpu.dcache.blocked_cycles::no_targets            0                       # number of cycles access was blocked
system.cpu.dcache.blocked::no_mshrs              3213                       # number of cycles access was blocked
system.cpu.dcache.blocked::no_targets               0                       # number of cycles access was blocked
system.cpu.dcache.avg_blocked_cycles::no_mshrs    49.733894                       # average number of cycles each access was blocked
system.cpu.dcache.avg_blocked_cycles::no_targets          nan                       # average number of cycles each access was blocked
system.cpu.dcache.writebacks::.writebacks       608039                       # number of writebacks
system.cpu.dcache.writebacks::total            608039                       # number of writebacks
system.cpu.dcache.demand_mshr_hits::.cpu.data        58021                       # number of demand (read+write) MSHR hits
system.cpu.dcache.demand_mshr_hits::total        58021                       # number of demand (read+write) MSHR hits
system.cpu.dcache.overall_mshr_hits::.cpu.data        58021                       # number of overall MSHR hits
system.cpu.dcache.overall_mshr_hits::total        58021                       # number of overall MSHR hits
system.cpu.dcache.demand_mshr_misses::.cpu.data       674882                       # number of demand (read+write) MSHR misses
system.cpu.dcache.demand_mshr_misses::total       674882                       # number of demand (read+write) MSHR misses
system.cpu.dcache.overall_mshr_misses::.cpu.data       682787                       # number of overall MSHR misses
system.cpu.dcache.overall_mshr_misses::total       682787                       # number of overall MSHR misses
system.cpu.dcache.demand_mshr_miss_latency::.cpu.data  25804015560                       # number of demand (read+write) MSHR miss cycles
system.cpu.dcache.demand_mshr_miss_latency::total  25804015560                       # number of demand (read+write) MSHR miss cycles
system.cpu.dcache.overall_mshr_miss_latency::.cpu.data  26528833120                       # number of overall MSHR miss cycles
system.cpu.dcache.overall_mshr_miss_latency::total  26528833120                       # number of overall MSHR miss cycles
system.cpu.dcache.demand_mshr_miss_rate::.cpu.data     0.012963                       # mshr miss rate for demand accesses
system.cpu.dcache.demand_mshr_miss_rate::total     0.012963                       # mshr miss rate for demand accesses
system.cpu.dcache.overall_mshr_miss_rate::.cpu.data     0.013113                       # mshr miss rate for overall accesses
system.cpu.dcache.overall_mshr_miss_rate::total     0.013113                       # mshr miss rate for overall accesses
system.cpu.dcache.demand_avg_mshr_miss_latency::.cpu.data 38234.855219                       # average overall mshr miss latency
system.cpu.dcache.demand_avg_mshr_miss_latency::total 38234.855219                       # average overall mshr miss latency
system.cpu.dcache.overall_avg_mshr_miss_latency::.cpu.data 38853.746659                       # average overall mshr miss latency
system.cpu.dcache.overall_avg_mshr_miss_latency::total 38853.746659                       # average overall mshr miss latency
system.cpu.dcache.replacements                 681763                       # number of replacements
system.cpu.dcache.ReadReq_hits::.cpu.data     40724959                       # number of ReadReq hits
system.cpu.dcache.ReadReq_hits::total        40724959                       # number of ReadReq hits
system.cpu.dcache.ReadReq_misses::.cpu.data       388391                       # number of ReadReq misses
system.cpu.dcache.ReadReq_misses::total        388391                       # number of ReadReq misses
system.cpu.dcache.ReadReq_miss_latency::.cpu.data  10834399826                       # number of ReadReq miss cycles
system.cpu.dcache.ReadReq_miss_latency::total  10834399826                       # number of ReadReq miss cycles
system.cpu.dcache.ReadReq_accesses::.cpu.data     41113350                       # number of ReadReq accesses(hits+misses)
system.cpu.dcache.ReadReq_accesses::total     41113350                       # number of ReadReq accesses(hits+misses)
system.cpu.dcache.ReadReq_miss_rate::.cpu.data     0.009447                       # miss rate for ReadReq accesses
system.cpu.dcache.ReadReq_miss_rate::total     0.009447                       # miss rate for ReadReq accesses
system.cpu.dcache.ReadReq_avg_miss_latency::.cpu.data 27895.599605                       # average ReadReq miss latency
system.cpu.dcache.ReadReq_avg_miss_latency::total 27895.599605                       # average ReadReq miss latency
system.cpu.dcache.ReadReq_mshr_hits::.cpu.data          289                       # number of ReadReq MSHR hits
system.cpu.dcache.ReadReq_mshr_hits::total          289                       # number of ReadReq MSHR hits
system.cpu.dcache.ReadReq_mshr_misses::.cpu.data       388102                       # number of ReadReq MSHR misses
system.cpu.dcache.ReadReq_mshr_misses::total       388102                       # number of ReadReq MSHR misses
system.cpu.dcache.ReadReq_mshr_miss_latency::.cpu.data  10304000092                       # number of ReadReq MSHR miss cycles
system.cpu.dcache.ReadReq_mshr_miss_latency::total  10304000092                       # number of ReadReq MSHR miss cycles
system.cpu.dcache.ReadReq_mshr_miss_rate::.cpu.data     0.009440                       # mshr miss rate for ReadReq accesses
system.cpu.dcache.ReadReq_mshr_miss_rate::total     0.009440                       # mshr miss rate for ReadReq accesses
system.cpu.dcache.ReadReq_avg_mshr_miss_latency::.cpu.data 26549.721702                       # average ReadReq mshr miss latency
system.cpu.dcache.ReadReq_avg_mshr_miss_latency::total 26549.721702                       # average ReadReq mshr miss latency
system.cpu.dcache.WriteReq_hits::.cpu.data     10604567                       # number of WriteReq hits
system.cpu.dcache.WriteReq_hits::total       10604567                       # number of WriteReq hits
system.cpu.dcache.WriteReq_misses::.cpu.data       344512                       # number of WriteReq misses
system.cpu.dcache.WriteReq_misses::total       344512                       # number of WriteReq misses
system.cpu.dcache.WriteReq_miss_latency::.cpu.data  17482697647                       # number of WriteReq miss cycles
system.cpu.dcache.WriteReq_miss_latency::total  17482697647                       # number of WriteReq miss cycles
system.cpu.dcache.WriteReq_accesses::.cpu.data     10949079                       # number of WriteReq accesses(hits+misses)
system.cpu.dcache.WriteReq_accesses::total     10949079                       # number of WriteReq accesses(hits+misses)
system.cpu.dcache.WriteReq_miss_rate::.cpu.data     0.031465                       # miss rate for WriteReq accesses
system.cpu.dcache.WriteReq_miss_rate::total     0.031465                       # miss rate for WriteReq accesses
system.cpu.dcache.WriteReq_avg_miss_latency::.cpu.data 50746.266159                       # average WriteReq miss latency
system.cpu.dcache.WriteReq_avg_miss_latency::total 50746.266159                       # average WriteReq miss latency
system.cpu.dcache.WriteReq_mshr_hits::.cpu.data        57732                       # number of WriteReq MSHR hits
system.cpu.dcache.WriteReq_mshr_hits::total        57732                       # number of WriteReq MSHR hits
system.cpu.dcache.WriteReq_mshr_misses::.cpu.data       286780                       # number of WriteReq MSHR misses
system.cpu.dcache.WriteReq_mshr_misses::total       286780                       # number of WriteReq MSHR misses
system.cpu.dcache.WriteReq_mshr_miss_latency::.cpu.data  15500015468                       # number of WriteReq MSHR miss cycles
system.cpu.dcache.WriteReq_mshr_miss_latency::total  15500015468                       # number of WriteReq MSHR miss cycles
system.cpu.dcache.WriteReq_mshr_miss_rate::.cpu.data     0.026192                       # mshr miss rate for WriteReq accesses
system.cpu.dcache.WriteReq_mshr_miss_rate::total     0.026192                       # mshr miss rate for WriteReq accesses
system.cpu.dcache.WriteReq_avg_mshr_miss_latency::.cpu.data 54048.453407                       # average WriteReq mshr miss latency
system.cpu.dcache.WriteReq_avg_mshr_miss_latency::total 54048.453407                       # average WriteReq mshr miss latency
system.cpu.dcache.SoftPFReq_hits::.cpu.data          511                       # number of SoftPFReq hits
system.cpu.dcache.SoftPFReq_hits::total           511                       # number of SoftPFReq hits
system.cpu.dcache.SoftPFReq_misses::.cpu.data         7908                       # number of SoftPFReq misses
system.cpu.dcache.SoftPFReq_misses::total         7908                       # number of SoftPFReq misses
system.cpu.dcache.SoftPFReq_accesses::.cpu.data         8419                       # number of SoftPFReq accesses(hits+misses)
system.cpu.dcache.SoftPFReq_accesses::total         8419                       # number of SoftPFReq accesses(hits+misses)
system.cpu.dcache.SoftPFReq_miss_rate::.cpu.data     0.939304                       # miss rate for SoftPFReq accesses
system.cpu.dcache.SoftPFReq_miss_rate::total     0.939304                       # miss rate for SoftPFReq accesses
system.cpu.dcache.SoftPFReq_mshr_misses::.cpu.data         7905                       # number of SoftPFReq MSHR misses
system.cpu.dcache.SoftPFReq_mshr_misses::total         7905                       # number of SoftPFReq MSHR misses
system.cpu.dcache.SoftPFReq_mshr_miss_latency::.cpu.data    724817560                       # number of SoftPFReq MSHR miss cycles
system.cpu.dcache.SoftPFReq_mshr_miss_latency::total    724817560                       # number of SoftPFReq MSHR miss cycles
system.cpu.dcache.SoftPFReq_mshr_miss_rate::.cpu.data     0.938948                       # mshr miss rate for SoftPFReq accesses
system.cpu.dcache.SoftPFReq_mshr_miss_rate::total     0.938948                       # mshr miss rate for SoftPFReq accesses
system.cpu.dcache.SoftPFReq_avg_mshr_miss_latency::.cpu.data 91691.025933                       # average SoftPFReq mshr miss latency
system.cpu.dcache.SoftPFReq_avg_mshr_miss_latency::total 91691.025933                       # average SoftPFReq mshr miss latency
system.cpu.dcache.LoadLockedReq_hits::.cpu.data           38                       # number of LoadLockedReq hits
system.cpu.dcache.LoadLockedReq_hits::total           38                       # number of LoadLockedReq hits
system.cpu.dcache.LoadLockedReq_accesses::.cpu.data           38                       # number of LoadLockedReq accesses(hits+misses)
system.cpu.dcache.LoadLockedReq_accesses::total           38                       # number of LoadLockedReq accesses(hits+misses)
system.cpu.dcache.StoreCondReq_hits::.cpu.data           38                       # number of StoreCondReq hits
system.cpu.dcache.StoreCondReq_hits::total           38                       # number of StoreCondReq hits
system.cpu.dcache.StoreCondReq_accesses::.cpu.data           38                       # number of StoreCondReq accesses(hits+misses)
system.cpu.dcache.StoreCondReq_accesses::total           38                       # number of StoreCondReq accesses(hits+misses)
system.cpu.dcache.power_state.pwrStateResidencyTicks::UNDEFINED 109272769747                       # Cumulative time (in ticks) in various power states
system.cpu.dcache.tags.tagsinuse          1010.124976                       # Cycle average of tags in use
system.cpu.dcache.tags.total_refs            52012900                       # Total number of references to valid blocks.
system.cpu.dcache.tags.sampled_refs            682787                       # Sample count of references to valid blocks.
system.cpu.dcache.tags.avg_refs             76.177344                       # Average number of references to valid blocks.
system.cpu.dcache.tags.warmup_cycle            192096                       # Cycle when the warmup percentage was hit.
system.cpu.dcache.tags.occ_blocks::.cpu.data  1010.124976                       # Average occupied blocks per requestor
system.cpu.dcache.tags.occ_percent::.cpu.data     0.986450                       # Average percentage of cache occupancy
system.cpu.dcache.tags.occ_percent::total     0.986450                       # Average percentage of cache occupancy
system.cpu.dcache.tags.occ_task_id_blocks::1024         1024                       # Occupied blocks per task id
system.cpu.dcache.tags.age_task_id_blocks_1024::0           64                       # Occupied blocks per task id
system.cpu.dcache.tags.age_task_id_blocks_1024::1          320                       # Occupied blocks per task id
system.cpu.dcache.tags.age_task_id_blocks_1024::2          636                       # Occupied blocks per task id
system.cpu.dcache.tags.age_task_id_blocks_1024::3            4                       # Occupied blocks per task id
system.cpu.dcache.tags.occ_task_id_percent::1024            1                       # Percentage of cache occupancy per task id
system.cpu.dcache.tags.tag_accesses         104824635                       # Number of tag accesses
system.cpu.dcache.tags.data_accesses        104824635                       # Number of data accesses
system.cpu.dcache.tags.power_state.pwrStateResidencyTicks::UNDEFINED 109272769747                       # Cumulative time (in ticks) in various power states
system.cpu.dtb.instHits                             0                       # ITB inst hits
system.cpu.dtb.instMisses                           0                       # ITB inst misses
system.cpu.dtb.readHits                             0                       # DTB read hits
system.cpu.dtb.readMisses                           0                       # DTB read misses
system.cpu.dtb.writeHits                            0                       # DTB write hits
system.cpu.dtb.writeMisses                          0                       # DTB write misses
system.cpu.dtb.inserts                              0                       # Number of times an entry is inserted into the TLB
system.cpu.dtb.flushTlb                             0                       # Number of times complete TLB was flushed
system.cpu.dtb.flushTlbMva                          0                       # Number of times TLB was flushed by MVA
system.cpu.dtb.flushTlbMvaAsid                      0                       # Number of times TLB was flushed by MVA & ASID
system.cpu.dtb.flushTlbAsid                         0                       # Number of times TLB was flushed by ASID
system.cpu.dtb.flushedEntries                       0                       # Number of entries that have been flushed from TLB
system.cpu.dtb.alignFaults                          0                       # Number of TLB faults due to alignment restrictions
system.cpu.dtb.prefetchFaults                       0                       # Number of TLB faults due to prefetch
system.cpu.dtb.domainFaults                         0                       # Number of TLB faults due to domain restrictions
system.cpu.dtb.permsFaults                          0                       # Number of TLB faults due to permissions restrictions
system.cpu.dtb.readAccesses                         0                       # DTB read accesses
system.cpu.dtb.writeAccesses                        0                       # DTB write accesses
system.cpu.dtb.instAccesses                         0                       # ITB inst accesses
system.cpu.dtb.hits                                 0                       # Total TLB (inst and data) hits
system.cpu.dtb.misses                               0                       # Total TLB (inst and data) misses
system.cpu.dtb.accesses                             0                       # Total TLB (inst and data) accesses
system.cpu.dtb.stage2_mmu.stage2_tlb.instHits            0                       # ITB inst hits
system.cpu.dtb.stage2_mmu.stage2_tlb.instMisses            0                       # ITB inst misses
system.cpu.dtb.stage2_mmu.stage2_tlb.readHits            0                       # DTB read hits
system.cpu.dtb.stage2_mmu.stage2_tlb.readMisses            0                       # DTB read misses
system.cpu.dtb.stage2_mmu.stage2_tlb.writeHits            0                       # DTB write hits
system.cpu.dtb.stage2_mmu.stage2_tlb.writeMisses            0                       # DTB write misses
system.cpu.dtb.stage2_mmu.stage2_tlb.inserts            0                       # Number of times an entry is inserted into the TLB
system.cpu.dtb.stage2_mmu.stage2_tlb.flushTlb            0                       # Number of times complete TLB was flushed
system.cpu.dtb.stage2_mmu.stage2_tlb.flushTlbMva            0                       # Number of times TLB was flushed by MVA
system.cpu.dtb.stage2_mmu.stage2_tlb.flushTlbMvaAsid            0                       # Number of times TLB was flushed by MVA & ASID
system.cpu.dtb.stage2_mmu.stage2_tlb.flushTlbAsid            0                       # Number of times TLB was flushed by ASID
system.cpu.dtb.stage2_mmu.stage2_tlb.flushedEntries            0                       # Number of entries that have been flushed from TLB
system.cpu.dtb.stage2_mmu.stage2_tlb.alignFaults            0                       # Number of TLB faults due to alignment restrictions
system.cpu.dtb.stage2_mmu.stage2_tlb.prefetchFaults            0                       # Number of TLB faults due to prefetch
system.cpu.dtb.stage2_mmu.stage2_tlb.domainFaults            0                       # Number of TLB faults due to domain restrictions
system.cpu.dtb.stage2_mmu.stage2_tlb.permsFaults            0                       # Number of TLB faults due to permissions restrictions
system.cpu.dtb.stage2_mmu.stage2_tlb.readAccesses            0                       # DTB read accesses
system.cpu.dtb.stage2_mmu.stage2_tlb.writeAccesses            0                       # DTB write accesses
system.cpu.dtb.stage2_mmu.stage2_tlb.instAccesses            0                       # ITB inst accesses
system.cpu.dtb.stage2_mmu.stage2_tlb.hits            0                       # Total TLB (inst and data) hits
system.cpu.dtb.stage2_mmu.stage2_tlb.misses            0                       # Total TLB (inst and data) misses
system.cpu.dtb.stage2_mmu.stage2_tlb.accesses            0                       # Total TLB (inst and data) accesses
system.cpu.dtb.stage2_mmu.stage2_tlb.walker.walks            0                       # Table walker walks requested
system.cpu.dtb.stage2_mmu.stage2_tlb.walker.requestOrigin_Requested::Data            0                       # Table walker requests started/completed, data/inst
system.cpu.dtb.stage2_mmu.stage2_tlb.walker.requestOrigin_Requested::Inst            0                       # Table walker requests started/completed, data/inst
system.cpu.dtb.stage2_mmu.stage2_tlb.walker.requestOrigin_Requested::total            0                       # Table walker requests started/completed, data/inst
system.cpu.dtb.stage2_mmu.stage2_tlb.walker.requestOrigin_Completed::Data            0                       # Table walker requests started/completed, data/inst
system.cpu.dtb.stage2_mmu.stage2_tlb.walker.requestOrigin_Completed::Inst            0                       # Table walker requests started/completed, data/inst
system.cpu.dtb.stage2_mmu.stage2_tlb.walker.requestOrigin_Completed::total            0                       # Table walker requests started/completed, data/inst
system.cpu.dtb.stage2_mmu.stage2_tlb.walker.requestOrigin::total            0                       # Table walker requests started/completed, data/inst
system.cpu.dtb.stage2_mmu.stage2_tlb.walker.power_state.pwrStateResidencyTicks::UNDEFINED 109272769747                       # Cumulative time (in ticks) in various power states
system.cpu.dtb.walker.walks                         0                       # Table walker walks requested
system.cpu.dtb.walker.requestOrigin_Requested::Data            0                       # Table walker requests started/completed, data/inst
system.cpu.dtb.walker.requestOrigin_Requested::Inst            0                       # Table walker requests started/completed, data/inst
system.cpu.dtb.walker.requestOrigin_Requested::total            0                       # Table walker requests started/completed, data/inst
system.cpu.dtb.walker.requestOrigin_Completed::Data            0                       # Table walker requests started/completed, data/inst
system.cpu.dtb.walker.requestOrigin_Completed::Inst            0                       # Table walker requests started/completed, data/inst
system.cpu.dtb.walker.requestOrigin_Completed::total            0                       # Table walker requests started/completed, data/inst
system.cpu.dtb.walker.requestOrigin::total            0                       # Table walker requests started/completed, data/inst
system.cpu.dtb.walker.power_state.pwrStateResidencyTicks::UNDEFINED 109272769747                       # Cumulative time (in ticks) in various power states
system.cpu.fetch2.intInstructions            42685722                       # Number of integer instructions successfully decoded
system.cpu.fetch2.fpInstructions                    0                       # Number of floating point instructions successfully decoded
system.cpu.fetch2.vecInstructions                   0                       # Number of SIMD instructions successfully decoded
system.cpu.fetch2.loadInstructions           43475058                       # Number of memory load instructions successfully decoded
system.cpu.fetch2.storeInstructions          11024859                       # Number of memory store instructions successfully decoded
system.cpu.fetch2.amoInstructions                   0                       # Number of memory atomic instructions successfully decoded
system.cpu.icache.demand_hits::.cpu.inst     10277936                       # number of demand (read+write) hits
system.cpu.icache.demand_hits::total         10277936                       # number of demand (read+write) hits
system.cpu.icache.overall_hits::.cpu.inst     10277936                       # number of overall hits
system.cpu.icache.overall_hits::total        10277936                       # number of overall hits
system.cpu.icache.demand_misses::.cpu.inst          779                       # number of demand (read+write) misses
system.cpu.icache.demand_misses::total            779                       # number of demand (read+write) misses
system.cpu.icache.overall_misses::.cpu.inst          779                       # number of overall misses
system.cpu.icache.overall_misses::total           779                       # number of overall misses
system.cpu.icache.demand_miss_latency::.cpu.inst     62139054                       # number of demand (read+write) miss cycles
system.cpu.icache.demand_miss_latency::total     62139054                       # number of demand (read+write) miss cycles
system.cpu.icache.overall_miss_latency::.cpu.inst     62139054                       # number of overall miss cycles
system.cpu.icache.overall_miss_latency::total     62139054                       # number of overall miss cycles
system.cpu.icache.demand_accesses::.cpu.inst     10278715                       # number of demand (read+write) accesses
system.cpu.icache.demand_accesses::total     10278715                       # number of demand (read+write) accesses
system.cpu.icache.overall_accesses::.cpu.inst     10278715                       # number of overall (read+write) accesses
system.cpu.icache.overall_accesses::total     10278715                       # number of overall (read+write) accesses
system.cpu.icache.demand_miss_rate::.cpu.inst     0.000076                       # miss rate for demand accesses
system.cpu.icache.demand_miss_rate::total     0.000076                       # miss rate for demand accesses
system.cpu.icache.overall_miss_rate::.cpu.inst     0.000076                       # miss rate for overall accesses
system.cpu.icache.overall_miss_rate::total     0.000076                       # miss rate for overall accesses
system.cpu.icache.demand_avg_miss_latency::.cpu.inst 79767.720154                       # average overall miss latency
system.cpu.icache.demand_avg_miss_latency::total 79767.720154                       # average overall miss latency
system.cpu.icache.overall_avg_miss_latency::.cpu.inst 79767.720154                       # average overall miss latency
system.cpu.icache.overall_avg_miss_latency::total 79767.720154                       # average overall miss latency
system.cpu.icache.blocked_cycles::no_mshrs            0                       # number of cycles access was blocked
system.cpu.icache.blocked_cycles::no_targets            0                       # number of cycles access was blocked
system.cpu.icache.blocked::no_mshrs                 0                       # number of cycles access was blocked
system.cpu.icache.blocked::no_targets               0                       # number of cycles access was blocked
system.cpu.icache.avg_blocked_cycles::no_mshrs          nan                       # average number of cycles each access was blocked
system.cpu.icache.avg_blocked_cycles::no_targets          nan                       # average number of cycles each access was blocked
system.cpu.icache.writebacks::.writebacks          335                       # number of writebacks
system.cpu.icache.writebacks::total               335                       # number of writebacks
system.cpu.icache.demand_mshr_misses::.cpu.inst          779                       # number of demand (read+write) MSHR misses
system.cpu.icache.demand_mshr_misses::total          779                       # number of demand (read+write) MSHR misses
system.cpu.icache.overall_mshr_misses::.cpu.inst          779                       # number of overall MSHR misses
system.cpu.icache.overall_mshr_misses::total          779                       # number of overall MSHR misses
system.cpu.icache.demand_mshr_miss_latency::.cpu.inst     61099868                       # number of demand (read+write) MSHR miss cycles
system.cpu.icache.demand_mshr_miss_latency::total     61099868                       # number of demand (read+write) MSHR miss cycles
system.cpu.icache.overall_mshr_miss_latency::.cpu.inst     61099868                       # number of overall MSHR miss cycles
system.cpu.icache.overall_mshr_miss_latency::total     61099868                       # number of overall MSHR miss cycles
system.cpu.icache.demand_mshr_miss_rate::.cpu.inst     0.000076                       # mshr miss rate for demand accesses
system.cpu.icache.demand_mshr_miss_rate::total     0.000076                       # mshr miss rate for demand accesses
system.cpu.icache.overall_mshr_miss_rate::.cpu.inst     0.000076                       # mshr miss rate for overall accesses
system.cpu.icache.overall_mshr_miss_rate::total     0.000076                       # mshr miss rate for overall accesses
system.cpu.icache.demand_avg_mshr_miss_latency::.cpu.inst 78433.720154                       # average overall mshr miss latency
system.cpu.icache.demand_avg_mshr_miss_latency::total 78433.720154                       # average overall mshr miss latency
system.cpu.icache.overall_avg_mshr_miss_latency::.cpu.inst 78433.720154                       # average overall mshr miss latency
system.cpu.icache.overall_avg_mshr_miss_latency::total 78433.720154                       # average overall mshr miss latency
system.cpu.icache.replacements                    335                       # number of replacements
system.cpu.icache.ReadReq_hits::.cpu.inst     10277936                       # number of ReadReq hits
system.cpu.icache.ReadReq_hits::total        10277936                       # number of ReadReq hits
system.cpu.icache.ReadReq_misses::.cpu.inst          779                       # number of ReadReq misses
system.cpu.icache.ReadReq_misses::total           779                       # number of ReadReq misses
system.cpu.icache.ReadReq_miss_latency::.cpu.inst     62139054                       # number of ReadReq miss cycles
system.cpu.icache.ReadReq_miss_latency::total     62139054                       # number of ReadReq miss cycles
system.cpu.icache.ReadReq_accesses::.cpu.inst     10278715                       # number of ReadReq accesses(hits+misses)
system.cpu.icache.ReadReq_accesses::total     10278715                       # number of ReadReq accesses(hits+misses)
system.cpu.icache.ReadReq_miss_rate::.cpu.inst     0.000076                       # miss rate for ReadReq accesses
system.cpu.icache.ReadReq_miss_rate::total     0.000076                       # miss rate for ReadReq accesses
system.cpu.icache.ReadReq_avg_miss_latency::.cpu.inst 79767.720154                       # average ReadReq miss latency
system.cpu.icache.ReadReq_avg_miss_latency::total 79767.720154                       # average ReadReq miss latency
system.cpu.icache.ReadReq_mshr_misses::.cpu.inst          779                       # number of ReadReq MSHR misses
system.cpu.icache.ReadReq_mshr_misses::total          779                       # number of ReadReq MSHR misses
system.cpu.icache.ReadReq_mshr_miss_latency::.cpu.inst     61099868                       # number of ReadReq MSHR miss cycles
system.cpu.icache.ReadReq_mshr_miss_latency::total     61099868                       # number of ReadReq MSHR miss cycles
system.cpu.icache.ReadReq_mshr_miss_rate::.cpu.inst     0.000076                       # mshr miss rate for ReadReq accesses
system.cpu.icache.ReadReq_mshr_miss_rate::total     0.000076                       # mshr miss rate for ReadReq accesses
system.cpu.icache.ReadReq_avg_mshr_miss_latency::.cpu.inst 78433.720154                       # average ReadReq mshr miss latency
system.cpu.icache.ReadReq_avg_mshr_miss_latency::total 78433.720154                       # average ReadReq mshr miss latency
system.cpu.icache.power_state.pwrStateResidencyTicks::UNDEFINED 109272769747                       # Cumulative time (in ticks) in various power states
system.cpu.icache.tags.tagsinuse           357.956569                       # Cycle average of tags in use
system.cpu.icache.tags.total_refs            10278715                       # Total number of references to valid blocks.
system.cpu.icache.tags.sampled_refs               779                       # Sample count of references to valid blocks.
system.cpu.icache.tags.avg_refs          13194.756098                       # Average number of references to valid blocks.
system.cpu.icache.tags.warmup_cycle             94047                       # Cycle when the warmup percentage was hit.
system.cpu.icache.tags.occ_blocks::.cpu.inst   357.956569                       # Average occupied blocks per requestor
system.cpu.icache.tags.occ_percent::.cpu.inst     0.699134                       # Average percentage of cache occupancy
system.cpu.icache.tags.occ_percent::total     0.699134                       # Average percentage of cache occupancy
system.cpu.icache.tags.occ_task_id_blocks::1024          444                       # Occupied blocks per task id
system.cpu.icache.tags.age_task_id_blocks_1024::3          107                       # Occupied blocks per task id
system.cpu.icache.tags.age_task_id_blocks_1024::4          337                       # Occupied blocks per task id
system.cpu.icache.tags.occ_task_id_percent::1024     0.867188                       # Percentage of cache occupancy per task id
system.cpu.icache.tags.tag_accesses          20558209                       # Number of tag accesses
system.cpu.icache.tags.data_accesses         20558209                       # Number of data accesses
system.cpu.icache.tags.power_state.pwrStateResidencyTicks::UNDEFINED 109272769747                       # Cumulative time (in ticks) in various power states
system.cpu.itb.instHits                             0                       # ITB inst hits
system.cpu.itb.instMisses                           0                       # ITB inst misses
system.cpu.itb.readHits                             0                       # DTB read hits
system.cpu.itb.readMisses                           0                       # DTB read misses
system.cpu.itb.writeHits                            0                       # DTB write hits
system.cpu.itb.writeMisses                          0                       # DTB write misses
system.cpu.itb.inserts                              0                       # Number of times an entry is inserted into the TLB
system.cpu.itb.flushTlb                             0                       # Number of times complete TLB was flushed
system.cpu.itb.flushTlbMva                          0                       # Number of times TLB was flushed by MVA
system.cpu.itb.flushTlbMvaAsid                      0                       # Number of times TLB was flushed by MVA & ASID
system.cpu.itb.flushTlbAsid                         0                       # Number of times TLB was flushed by ASID
system.cpu.itb.flushedEntries                       0                       # Number of entries that have been flushed from TLB
system.cpu.itb.alignFaults                          0                       # Number of TLB faults due to alignment restrictions
system.cpu.itb.prefetchFaults                       0                       # Number of TLB faults due to prefetch
system.cpu.itb.domainFaults                         0                       # Number of TLB faults due to domain restrictions
system.cpu.itb.permsFaults                          0                       # Number of TLB faults due to permissions restrictions
system.cpu.itb.readAccesses                         0                       # DTB read accesses
system.cpu.itb.writeAccesses                        0                       # DTB write accesses
system.cpu.itb.instAccesses                         0                       # ITB inst accesses
system.cpu.itb.hits                                 0                       # Total TLB (inst and data) hits
system.cpu.itb.misses                               0                       # Total TLB (inst and data) misses
system.cpu.itb.accesses                             0                       # Total TLB (inst and data) accesses
system.cpu.itb.stage2_mmu.stage2_tlb.instHits            0                       # ITB inst hits
system.cpu.itb.stage2_mmu.stage2_tlb.instMisses            0                       # ITB inst misses
system.cpu.itb.stage2_mmu.stage2_tlb.readHits            0                       # DTB read hits
system.cpu.itb.stage2_mmu.stage2_tlb.readMisses            0                       # DTB read misses
system.cpu.itb.stage2_mmu.stage2_tlb.writeHits            0                       # DTB write hits
system.cpu.itb.stage2_mmu.stage2_tlb.writeMisses            0                       # DTB write misses
system.cpu.itb.stage2_mmu.stage2_tlb.inserts            0                       # Number of times an entry is inserted into the TLB
system.cpu.itb.stage2_mmu.stage2_tlb.flushTlb            0                       # Number of times complete TLB was flushed
system.cpu.itb.stage2_mmu.stage2_tlb.flushTlbMva            0                       # Number of times TLB was flushed by MVA
system.cpu.itb.stage2_mmu.stage2_tlb.flushTlbMvaAsid            0                       # Number of times TLB was flushed by MVA & ASID
system.cpu.itb.stage2_mmu.stage2_tlb.flushTlbAsid            0                       # Number of times TLB was flushed by ASID
system.cpu.itb.stage2_mmu.stage2_tlb.flushedEntries            0                       # Number of entries that have been flushed from TLB
system.cpu.itb.stage2_mmu.stage2_tlb.alignFaults            0                       # Number of TLB faults due to alignment restrictions
system.cpu.itb.stage2_mmu.stage2_tlb.prefetchFaults            0                       # Number of TLB faults due to prefetch
system.cpu.itb.stage2_mmu.stage2_tlb.domainFaults            0                       # Number of TLB faults due to domain restrictions
system.cpu.itb.stage2_mmu.stage2_tlb.permsFaults            0                       # Number of TLB faults due to permissions restrictions
system.cpu.itb.stage2_mmu.stage2_tlb.readAccesses            0                       # DTB read accesses
system.cpu.itb.stage2_mmu.stage2_tlb.writeAccesses            0                       # DTB write accesses
system.cpu.itb.stage2_mmu.stage2_tlb.instAccesses            0                       # ITB inst accesses
system.cpu.itb.stage2_mmu.stage2_tlb.hits            0                       # Total TLB (inst and data) hits
system.cpu.itb.stage2_mmu.stage2_tlb.misses            0                       # Total TLB (inst and data) misses
system.cpu.itb.stage2_mmu.stage2_tlb.accesses            0                       # Total TLB (inst and data) accesses
system.cpu.itb.stage2_mmu.stage2_tlb.walker.walks            0                       # Table walker walks requested
system.cpu.itb.stage2_mmu.stage2_tlb.walker.requestOrigin_Requested::Data            0                       # Table walker requests started/completed, data/inst
system.cpu.itb.stage2_mmu.stage2_tlb.walker.requestOrigin_Requested::Inst            0                       # Table walker requests started/completed, data/inst
system.cpu.itb.stage2_mmu.stage2_tlb.walker.requestOrigin_Requested::total            0                       # Table walker requests started/completed, data/inst
system.cpu.itb.stage2_mmu.stage2_tlb.walker.requestOrigin_Completed::Data            0                       # Table walker requests started/completed, data/inst
system.cpu.itb.stage2_mmu.stage2_tlb.walker.requestOrigin_Completed::Inst            0                       # Table walker requests started/completed, data/inst
system.cpu.itb.stage2_mmu.stage2_tlb.walker.requestOrigin_Completed::total            0                       # Table walker requests started/completed, data/inst
system.cpu.itb.stage2_mmu.stage2_tlb.walker.requestOrigin::total            0                       # Table walker requests started/completed, data/inst
system.cpu.itb.stage2_mmu.stage2_tlb.walker.power_state.pwrStateResidencyTicks::UNDEFINED 109272769747                       # Cumulative time (in ticks) in various power states
system.cpu.itb.walker.walks                         0                       # Table walker walks requested
system.cpu.itb.walker.requestOrigin_Requested::Data            0                       # Table walker requests started/completed, data/inst
system.cpu.itb.walker.requestOrigin_Requested::Inst            0                       # Table walker requests started/completed, data/inst
system.cpu.itb.walker.requestOrigin_Requested::total            0                       # Table walker requests started/completed, data/inst
system.cpu.itb.walker.requestOrigin_Completed::Data            0                       # Table walker requests started/completed, data/inst
system.cpu.itb.walker.requestOrigin_Completed::Inst            0                       # Table walker requests started/completed, data/inst
system.cpu.itb.walker.requestOrigin_Completed::total            0                       # Table walker requests started/completed, data/inst
system.cpu.itb.walker.requestOrigin::total            0                       # Table walker requests started/completed, data/inst
system.cpu.itb.walker.power_state.pwrStateResidencyTicks::UNDEFINED 109272769747                       # Cumulative time (in ticks) in various power states
system.cpu.power_state.pwrStateResidencyTicks::ON 109272769747                       # Cumulative time (in ticks) in various power states
system.cpu.thread_0.numInsts                100000001                       # Number of Instructions committed
system.cpu.thread_0.numOps                  100196356                       # Number of Ops committed
system.cpu.thread_0.numMemRefs                      0                       # Number of Memory References
system.cpu_clk_domain.clock                       667                       # Clock period in ticks
system.cpu_voltage_domain.voltage                   1                       # Voltage in Volts
system.l2.demand_hits::.cpu.inst                  105                       # number of demand (read+write) hits
system.l2.demand_hits::.cpu.data               481590                       # number of demand (read+write) hits
system.l2.demand_hits::total                   481695                       # number of demand (read+write) hits
system.l2.overall_hits::.cpu.inst                 105                       # number of overall hits
system.l2.overall_hits::.cpu.data              481590                       # number of overall hits
system.l2.overall_hits::total                  481695                       # number of overall hits
system.l2.demand_misses::.cpu.inst                674                       # number of demand (read+write) misses
system.l2.demand_misses::.cpu.data             201197                       # number of demand (read+write) misses
system.l2.demand_misses::total                 201871                       # number of demand (read+write) misses
system.l2.overall_misses::.cpu.inst               674                       # number of overall misses
system.l2.overall_misses::.cpu.data            201197                       # number of overall misses
system.l2.overall_misses::total                201871                       # number of overall misses
system.l2.demand_miss_latency::.cpu.inst     58043007                       # number of demand (read+write) miss cycles
system.l2.demand_miss_latency::.cpu.data  18411683241                       # number of demand (read+write) miss cycles
system.l2.demand_miss_latency::total      18469726248                       # number of demand (read+write) miss cycles
system.l2.overall_miss_latency::.cpu.inst     58043007                       # number of overall miss cycles
system.l2.overall_miss_latency::.cpu.data  18411683241                       # number of overall miss cycles
system.l2.overall_miss_latency::total     18469726248                       # number of overall miss cycles
system.l2.demand_accesses::.cpu.inst              779                       # number of demand (read+write) accesses
system.l2.demand_accesses::.cpu.data           682787                       # number of demand (read+write) accesses
system.l2.demand_accesses::total               683566                       # number of demand (read+write) accesses
system.l2.overall_accesses::.cpu.inst             779                       # number of overall (read+write) accesses
system.l2.overall_accesses::.cpu.data          682787                       # number of overall (read+write) accesses
system.l2.overall_accesses::total              683566                       # number of overall (read+write) accesses
system.l2.demand_miss_rate::.cpu.inst        0.865212                       # miss rate for demand accesses
system.l2.demand_miss_rate::.cpu.data        0.294670                       # miss rate for demand accesses
system.l2.demand_miss_rate::total            0.295320                       # miss rate for demand accesses
system.l2.overall_miss_rate::.cpu.inst       0.865212                       # miss rate for overall accesses
system.l2.overall_miss_rate::.cpu.data       0.294670                       # miss rate for overall accesses
system.l2.overall_miss_rate::total           0.295320                       # miss rate for overall accesses
system.l2.demand_avg_miss_latency::.cpu.inst 86117.221068                       # average overall miss latency
system.l2.demand_avg_miss_latency::.cpu.data 91510.724519                       # average overall miss latency
system.l2.demand_avg_miss_latency::total 91492.716874                       # average overall miss latency
system.l2.overall_avg_miss_latency::.cpu.inst 86117.221068                       # average overall miss latency
system.l2.overall_avg_miss_latency::.cpu.data 91510.724519                       # average overall miss latency
system.l2.overall_avg_miss_latency::total 91492.716874                       # average overall miss latency
system.l2.blocked_cycles::no_mshrs                  0                       # number of cycles access was blocked
system.l2.blocked_cycles::no_targets                0                       # number of cycles access was blocked
system.l2.blocked::no_mshrs                         0                       # number of cycles access was blocked
system.l2.blocked::no_targets                       0                       # number of cycles access was blocked
system.l2.avg_blocked_cycles::no_mshrs            nan                       # average number of cycles each access was blocked
system.l2.avg_blocked_cycles::no_targets          nan                       # average number of cycles each access was blocked
system.l2.writebacks::.writebacks              111499                       # number of writebacks
system.l2.writebacks::total                    111499                       # number of writebacks
system.l2.demand_mshr_hits::.cpu.data               5                       # number of demand (read+write) MSHR hits
system.l2.demand_mshr_hits::total                   5                       # number of demand (read+write) MSHR hits
system.l2.overall_mshr_hits::.cpu.data              5                       # number of overall MSHR hits
system.l2.overall_mshr_hits::total                  5                       # number of overall MSHR hits
system.l2.demand_mshr_misses::.cpu.inst           674                       # number of demand (read+write) MSHR misses
system.l2.demand_mshr_misses::.cpu.data        201192                       # number of demand (read+write) MSHR misses
system.l2.demand_mshr_misses::total            201866                       # number of demand (read+write) MSHR misses
system.l2.overall_mshr_misses::.cpu.inst          674                       # number of overall MSHR misses
system.l2.overall_mshr_misses::.cpu.data       201192                       # number of overall MSHR misses
system.l2.overall_mshr_misses::total           201866                       # number of overall MSHR misses
system.l2.demand_mshr_miss_latency::.cpu.inst     48846124                       # number of demand (read+write) MSHR miss cycles
system.l2.demand_mshr_miss_latency::.cpu.data  15669147105                       # number of demand (read+write) MSHR miss cycles
system.l2.demand_mshr_miss_latency::total  15717993229                       # number of demand (read+write) MSHR miss cycles
system.l2.overall_mshr_miss_latency::.cpu.inst     48846124                       # number of overall MSHR miss cycles
system.l2.overall_mshr_miss_latency::.cpu.data  15669147105                       # number of overall MSHR miss cycles
system.l2.overall_mshr_miss_latency::total  15717993229                       # number of overall MSHR miss cycles
system.l2.demand_mshr_miss_rate::.cpu.inst     0.865212                       # mshr miss rate for demand accesses
system.l2.demand_mshr_miss_rate::.cpu.data     0.294663                       # mshr miss rate for demand accesses
system.l2.demand_mshr_miss_rate::total       0.295313                       # mshr miss rate for demand accesses
system.l2.overall_mshr_miss_rate::.cpu.inst     0.865212                       # mshr miss rate for overall accesses
system.l2.overall_mshr_miss_rate::.cpu.data     0.294663                       # mshr miss rate for overall accesses
system.l2.overall_mshr_miss_rate::total      0.295313                       # mshr miss rate for overall accesses
system.l2.demand_avg_mshr_miss_latency::.cpu.inst 72471.994065                       # average overall mshr miss latency
system.l2.demand_avg_mshr_miss_latency::.cpu.data 77881.561419                       # average overall mshr miss latency
system.l2.demand_avg_mshr_miss_latency::total 77863.499693                       # average overall mshr miss latency
system.l2.overall_avg_mshr_miss_latency::.cpu.inst 72471.994065                       # average overall mshr miss latency
system.l2.overall_avg_mshr_miss_latency::.cpu.data 77881.561419                       # average overall mshr miss latency
system.l2.overall_avg_mshr_miss_latency::total 77863.499693                       # average overall mshr miss latency
system.l2.replacements                         169238                       # number of replacements
system.l2.WritebackDirty_hits::.writebacks       608039                       # number of WritebackDirty hits
system.l2.WritebackDirty_hits::total           608039                       # number of WritebackDirty hits
system.l2.WritebackDirty_accesses::.writebacks       608039                       # number of WritebackDirty accesses(hits+misses)
system.l2.WritebackDirty_accesses::total       608039                       # number of WritebackDirty accesses(hits+misses)
system.l2.WritebackClean_hits::.writebacks          325                       # number of WritebackClean hits
system.l2.WritebackClean_hits::total              325                       # number of WritebackClean hits
system.l2.WritebackClean_accesses::.writebacks          325                       # number of WritebackClean accesses(hits+misses)
system.l2.WritebackClean_accesses::total          325                       # number of WritebackClean accesses(hits+misses)
system.l2.ReadExReq_hits::.cpu.data            150158                       # number of ReadExReq hits
system.l2.ReadExReq_hits::total                150158                       # number of ReadExReq hits
system.l2.ReadExReq_misses::.cpu.data          136622                       # number of ReadExReq misses
system.l2.ReadExReq_misses::total              136622                       # number of ReadExReq misses
system.l2.ReadExReq_miss_latency::.cpu.data  12821450855                       # number of ReadExReq miss cycles
system.l2.ReadExReq_miss_latency::total   12821450855                       # number of ReadExReq miss cycles
system.l2.ReadExReq_accesses::.cpu.data        286780                       # number of ReadExReq accesses(hits+misses)
system.l2.ReadExReq_accesses::total            286780                       # number of ReadExReq accesses(hits+misses)
system.l2.ReadExReq_miss_rate::.cpu.data     0.476400                       # miss rate for ReadExReq accesses
system.l2.ReadExReq_miss_rate::total         0.476400                       # miss rate for ReadExReq accesses
system.l2.ReadExReq_avg_miss_latency::.cpu.data 93846.165735                       # average ReadExReq miss latency
system.l2.ReadExReq_avg_miss_latency::total 93846.165735                       # average ReadExReq miss latency
system.l2.ReadExReq_mshr_misses::.cpu.data       136622                       # number of ReadExReq MSHR misses
system.l2.ReadExReq_mshr_misses::total         136622                       # number of ReadExReq MSHR misses
system.l2.ReadExReq_mshr_miss_latency::.cpu.data  10957285103                       # number of ReadExReq MSHR miss cycles
system.l2.ReadExReq_mshr_miss_latency::total  10957285103                       # number of ReadExReq MSHR miss cycles
system.l2.ReadExReq_mshr_miss_rate::.cpu.data     0.476400                       # mshr miss rate for ReadExReq accesses
system.l2.ReadExReq_mshr_miss_rate::total     0.476400                       # mshr miss rate for ReadExReq accesses
system.l2.ReadExReq_avg_mshr_miss_latency::.cpu.data 80201.469039                       # average ReadExReq mshr miss latency
system.l2.ReadExReq_avg_mshr_miss_latency::total 80201.469039                       # average ReadExReq mshr miss latency
system.l2.ReadCleanReq_hits::.cpu.inst            105                       # number of ReadCleanReq hits
system.l2.ReadCleanReq_hits::total                105                       # number of ReadCleanReq hits
system.l2.ReadCleanReq_misses::.cpu.inst          674                       # number of ReadCleanReq misses
system.l2.ReadCleanReq_misses::total              674                       # number of ReadCleanReq misses
system.l2.ReadCleanReq_miss_latency::.cpu.inst     58043007                       # number of ReadCleanReq miss cycles
system.l2.ReadCleanReq_miss_latency::total     58043007                       # number of ReadCleanReq miss cycles
system.l2.ReadCleanReq_accesses::.cpu.inst          779                       # number of ReadCleanReq accesses(hits+misses)
system.l2.ReadCleanReq_accesses::total            779                       # number of ReadCleanReq accesses(hits+misses)
system.l2.ReadCleanReq_miss_rate::.cpu.inst     0.865212                       # miss rate for ReadCleanReq accesses
system.l2.ReadCleanReq_miss_rate::total      0.865212                       # miss rate for ReadCleanReq accesses
system.l2.ReadCleanReq_avg_miss_latency::.cpu.inst 86117.221068                       # average ReadCleanReq miss latency
system.l2.ReadCleanReq_avg_miss_latency::total 86117.221068                       # average ReadCleanReq miss latency
system.l2.ReadCleanReq_mshr_misses::.cpu.inst          674                       # number of ReadCleanReq MSHR misses
system.l2.ReadCleanReq_mshr_misses::total          674                       # number of ReadCleanReq MSHR misses
system.l2.ReadCleanReq_mshr_miss_latency::.cpu.inst     48846124                       # number of ReadCleanReq MSHR miss cycles
system.l2.ReadCleanReq_mshr_miss_latency::total     48846124                       # number of ReadCleanReq MSHR miss cycles
system.l2.ReadCleanReq_mshr_miss_rate::.cpu.inst     0.865212                       # mshr miss rate for ReadCleanReq accesses
system.l2.ReadCleanReq_mshr_miss_rate::total     0.865212                       # mshr miss rate for ReadCleanReq accesses
system.l2.ReadCleanReq_avg_mshr_miss_latency::.cpu.inst 72471.994065                       # average ReadCleanReq mshr miss latency
system.l2.ReadCleanReq_avg_mshr_miss_latency::total 72471.994065                       # average ReadCleanReq mshr miss latency
system.l2.ReadSharedReq_hits::.cpu.data        331432                       # number of ReadSharedReq hits
system.l2.ReadSharedReq_hits::total            331432                       # number of ReadSharedReq hits
system.l2.ReadSharedReq_misses::.cpu.data        64575                       # number of ReadSharedReq misses
system.l2.ReadSharedReq_misses::total           64575                       # number of ReadSharedReq misses
system.l2.ReadSharedReq_miss_latency::.cpu.data   5590232386                       # number of ReadSharedReq miss cycles
system.l2.ReadSharedReq_miss_latency::total   5590232386                       # number of ReadSharedReq miss cycles
system.l2.ReadSharedReq_accesses::.cpu.data       396007                       # number of ReadSharedReq accesses(hits+misses)
system.l2.ReadSharedReq_accesses::total        396007                       # number of ReadSharedReq accesses(hits+misses)
system.l2.ReadSharedReq_miss_rate::.cpu.data     0.163065                       # miss rate for ReadSharedReq accesses
system.l2.ReadSharedReq_miss_rate::total     0.163065                       # miss rate for ReadSharedReq accesses
system.l2.ReadSharedReq_avg_miss_latency::.cpu.data 86569.607216                       # average ReadSharedReq miss latency
system.l2.ReadSharedReq_avg_miss_latency::total 86569.607216                       # average ReadSharedReq miss latency
system.l2.ReadSharedReq_mshr_hits::.cpu.data            5                       # number of ReadSharedReq MSHR hits
system.l2.ReadSharedReq_mshr_hits::total            5                       # number of ReadSharedReq MSHR hits
system.l2.ReadSharedReq_mshr_misses::.cpu.data        64570                       # number of ReadSharedReq MSHR misses
system.l2.ReadSharedReq_mshr_misses::total        64570                       # number of ReadSharedReq MSHR misses
system.l2.ReadSharedReq_mshr_miss_latency::.cpu.data   4711862002                       # number of ReadSharedReq MSHR miss cycles
system.l2.ReadSharedReq_mshr_miss_latency::total   4711862002                       # number of ReadSharedReq MSHR miss cycles
system.l2.ReadSharedReq_mshr_miss_rate::.cpu.data     0.163053                       # mshr miss rate for ReadSharedReq accesses
system.l2.ReadSharedReq_mshr_miss_rate::total     0.163053                       # mshr miss rate for ReadSharedReq accesses
system.l2.ReadSharedReq_avg_mshr_miss_latency::.cpu.data 72972.928636                       # average ReadSharedReq mshr miss latency
system.l2.ReadSharedReq_avg_mshr_miss_latency::total 72972.928636                       # average ReadSharedReq mshr miss latency
system.l2.power_state.pwrStateResidencyTicks::UNDEFINED 109272769747                       # Cumulative time (in ticks) in various power states
system.l2.tags.tagsinuse                 32013.916861                       # Cycle average of tags in use
system.l2.tags.total_refs                     1365581                       # Total number of references to valid blocks.
system.l2.tags.sampled_refs                    202006                       # Sample count of references to valid blocks.
system.l2.tags.avg_refs                      6.760101                       # Average number of references to valid blocks.
system.l2.tags.warmup_cycle                     80000                       # Cycle when the warmup percentage was hit.
system.l2.tags.occ_blocks::.writebacks      49.454845                       # Average occupied blocks per requestor
system.l2.tags.occ_blocks::.cpu.inst        79.866486                       # Average occupied blocks per requestor
system.l2.tags.occ_blocks::.cpu.data     31884.595529                       # Average occupied blocks per requestor
system.l2.tags.occ_percent::.writebacks      0.001509                       # Average percentage of cache occupancy
system.l2.tags.occ_percent::.cpu.inst        0.002437                       # Average percentage of cache occupancy
system.l2.tags.occ_percent::.cpu.data        0.973041                       # Average percentage of cache occupancy
system.l2.tags.occ_percent::total            0.976987                       # Average percentage of cache occupancy
system.l2.tags.occ_task_id_blocks::1024         32768                       # Occupied blocks per task id
system.l2.tags.age_task_id_blocks_1024::1           39                       # Occupied blocks per task id
system.l2.tags.age_task_id_blocks_1024::2         1069                       # Occupied blocks per task id
system.l2.tags.age_task_id_blocks_1024::3        12081                       # Occupied blocks per task id
system.l2.tags.age_task_id_blocks_1024::4        19579                       # Occupied blocks per task id
system.l2.tags.occ_task_id_percent::1024            1                       # Percentage of cache occupancy per task id
system.l2.tags.tag_accesses                   5664350                       # Number of tag accesses
system.l2.tags.data_accesses                  5664350                       # Number of data accesses
system.l2.tags.power_state.pwrStateResidencyTicks::UNDEFINED 109272769747                       # Cumulative time (in ticks) in various power states
system.mem_ctrls.avgPriority_.writebacks::samples    111499.00                       # Average QoS priority value for accepted requests
system.mem_ctrls.avgPriority_.cpu.inst::samples       674.00                       # Average QoS priority value for accepted requests
system.mem_ctrls.avgPriority_.cpu.data::samples    201139.00                       # Average QoS priority value for accepted requests
system.mem_ctrls.priorityMinLatency      0.000000018750                       # per QoS priority minimum request to response latency (s)
system.mem_ctrls.priorityMaxLatency      0.004719377660                       # per QoS priority maximum request to response latency (s)
system.mem_ctrls.numReadWriteTurnArounds         6648                       # Number of turnarounds from READ to WRITE
system.mem_ctrls.numWriteReadTurnArounds         6648                       # Number of turnarounds from WRITE to READ
system.mem_ctrls.numStayReadState              533567                       # Number of times bus staying in READ state
system.mem_ctrls.numStayWriteState             104980                       # Number of times bus staying in WRITE state
system.mem_ctrls.readReqs                      201866                       # Number of read requests accepted
system.mem_ctrls.writeReqs                     111499                       # Number of write requests accepted
system.mem_ctrls.readBursts                    201866                       # Number of controller read bursts, including those serviced by the write queue
system.mem_ctrls.writeBursts                   111499                       # Number of controller write bursts, including those merged in the write queue
system.mem_ctrls.servicedByWrQ                     53                       # Number of controller read bursts serviced by the write queue
system.mem_ctrls.mergedWrBursts                     0                       # Number of controller write bursts merged with an existing one
system.mem_ctrls.neitherReadNorWriteReqs            0                       # Number of requests that are neither read nor write
system.mem_ctrls.avgRdQLen                       1.07                       # Average read queue length when enqueuing
system.mem_ctrls.avgWrQLen                      24.84                       # Average write queue length when enqueuing
system.mem_ctrls.numRdRetry                         0                       # Number of times read queue was full causing retry
system.mem_ctrls.numWrRetry                         0                       # Number of times write queue was full causing retry
system.mem_ctrls.readPktSize::0                     0                       # Read request sizes (log2)
system.mem_ctrls.readPktSize::1                     0                       # Read request sizes (log2)
system.mem_ctrls.readPktSize::2                     0                       # Read request sizes (log2)
system.mem_ctrls.readPktSize::3                     0                       # Read request sizes (log2)
system.mem_ctrls.readPktSize::4                     0                       # Read request sizes (log2)
system.mem_ctrls.readPktSize::5                     0                       # Read request sizes (log2)
system.mem_ctrls.readPktSize::6                201866                       # Read request sizes (log2)
system.mem_ctrls.writePktSize::0                    0                       # Write request sizes (log2)
system.mem_ctrls.writePktSize::1                    0                       # Write request sizes (log2)
system.mem_ctrls.writePktSize::2                    0                       # Write request sizes (log2)
system.mem_ctrls.writePktSize::3                    0                       # Write request sizes (log2)
system.mem_ctrls.writePktSize::4                    0                       # Write request sizes (log2)
system.mem_ctrls.writePktSize::5                    0                       # Write request sizes (log2)
system.mem_ctrls.writePktSize::6               111499                       # Write request sizes (log2)
system.mem_ctrls.rdQLenPdf::0                  141114                       # What read queue length does an incoming req see
system.mem_ctrls.rdQLenPdf::1                   59750                       # What read queue length does an incoming req see
system.mem_ctrls.rdQLenPdf::2                     786                       # What read queue length does an incoming req see
system.mem_ctrls.rdQLenPdf::3                     162                       # What read queue length does an incoming req see
system.mem_ctrls.rdQLenPdf::4                       1                       # What read queue length does an incoming req see
system.mem_ctrls.rdQLenPdf::5                       0                       # What read queue length does an incoming req see
system.mem_ctrls.rdQLenPdf::6                       0                       # What read queue length does an incoming req see
system.mem_ctrls.rdQLenPdf::7                       0                       # What read queue length does an incoming req see
system.mem_ctrls.rdQLenPdf::8                       0                       # What read queue length does an incoming req see
system.mem_ctrls.rdQLenPdf::9                       0                       # What read queue length does an incoming req see
system.mem_ctrls.rdQLenPdf::10                      0                       # What read queue length does an incoming req see
system.mem_ctrls.rdQLenPdf::11                      0                       # What read queue length does an incoming req see
[...]
system.mem_ctrls.dram.bw_write::.writebacks     65303881                       # Write bandwidth from this memory (bytes/s)
system.mem_ctrls.dram.bw_write::total        65303881                       # Write bandwidth from this memory (bytes/s)
system.mem_ctrls.dram.bw_total::.writebacks     65303881                       # Total bandwidth to/from this memory (bytes/s)
system.mem_ctrls.dram.bw_total::.cpu.inst       394755                       # Total bandwidth to/from this memory (bytes/s)
system.mem_ctrls.dram.bw_total::.cpu.data    117836200                       # Total bandwidth to/from this memory (bytes/s)
system.mem_ctrls.dram.bw_total::total       183534837                       # Total bandwidth to/from this memory (bytes/s)
system.mem_ctrls.dram.readBursts               201813                       # Number of DRAM read bursts
system.mem_ctrls.dram.writeBursts              111477                       # Number of DRAM write bursts
system.mem_ctrls.dram.perBankRdBursts::0        12885                       # Per bank write bursts
system.mem_ctrls.dram.perBankRdBursts::1        12860                       # Per bank write bursts
system.mem_ctrls.dram.perBankRdBursts::2        12768                       # Per bank write bursts
system.mem_ctrls.dram.perBankRdBursts::3        12557                       # Per bank write bursts
system.mem_ctrls.dram.perBankRdBursts::4        12647                       # Per bank write bursts
system.mem_ctrls.dram.perBankRdBursts::5        12413                       # Per bank write bursts
system.mem_ctrls.dram.perBankRdBursts::6        12641                       # Per bank write bursts
system.mem_ctrls.dram.perBankRdBursts::7        12352                       # Per bank write bursts
system.mem_ctrls.dram.perBankRdBursts::8        12488                       # Per bank write bursts
system.mem_ctrls.dram.perBankRdBursts::9        12091                       # Per bank write bursts
system.mem_ctrls.dram.perBankRdBursts::10        12505                       # Per bank write bursts
system.mem_ctrls.dram.perBankRdBursts::11        12688                       # Per bank write bursts
system.mem_ctrls.dram.perBankRdBursts::12        12753                       # Per bank write bursts
system.mem_ctrls.dram.perBankRdBursts::13        12757                       # Per bank write bursts
system.mem_ctrls.dram.perBankRdBursts::14        12768                       # Per bank write bursts
system.mem_ctrls.dram.perBankRdBursts::15        12640                       # Per bank write bursts
system.mem_ctrls.dram.perBankWrBursts::0         7067                       # Per bank write bursts
system.mem_ctrls.dram.perBankWrBursts::1         7129                       # Per bank write bursts
system.mem_ctrls.dram.perBankWrBursts::2         7051                       # Per bank write bursts
system.mem_ctrls.dram.perBankWrBursts::3         6962                       # Per bank write bursts
system.mem_ctrls.dram.perBankWrBursts::4         7094                       # Per bank write bursts
system.mem_ctrls.dram.perBankWrBursts::5         6978                       # Per bank write bursts
system.mem_ctrls.dram.perBankWrBursts::6         7186                       # Per bank write bursts
system.mem_ctrls.dram.perBankWrBursts::7         6894                       # Per bank write bursts
system.mem_ctrls.dram.perBankWrBursts::8         6819                       # Per bank write bursts
system.mem_ctrls.dram.perBankWrBursts::9         6469                       # Per bank write bursts
system.mem_ctrls.dram.perBankWrBursts::10         6854                       # Per bank write bursts
system.mem_ctrls.dram.perBankWrBursts::11         6983                       # Per bank write bursts
system.mem_ctrls.dram.perBankWrBursts::12         6992                       # Per bank write bursts
system.mem_ctrls.dram.perBankWrBursts::13         6985                       # Per bank write bursts
system.mem_ctrls.dram.perBankWrBursts::14         7017                       # Per bank write bursts
system.mem_ctrls.dram.perBankWrBursts::15         6997                       # Per bank write bursts
system.mem_ctrls.dram.totQLat              2846848210                       # Total ticks spent queuing
system.mem_ctrls.dram.totBusLat            1009065000                       # Total ticks spent in databus transfers
system.mem_ctrls.dram.totMemAccLat         6630841960                       # Total ticks spent from burst creation until serviced by the DRAM
system.mem_ctrls.dram.avgQLat                14106.37                       # Average queueing delay per DRAM burst
system.mem_ctrls.dram.avgBusLat               5000.00                       # Average bus latency per DRAM burst
system.mem_ctrls.dram.avgMemAccLat           32856.37                       # Average memory access latency per DRAM burst
system.mem_ctrls.dram.readRowHits              135980                       # Number of row buffer hits during reads
system.mem_ctrls.dram.writeRowHits              70692                       # Number of row buffer hits during writes
system.mem_ctrls.dram.readRowHitRate            67.38                       # Row buffer hit rate for reads
system.mem_ctrls.dram.writeRowHitRate           63.41                       # Row buffer hit rate for writes
system.mem_ctrls.dram.bytesPerActivate::samples       106618                       # Bytes accessed per row activation
system.mem_ctrls.dram.bytesPerActivate::mean   188.059802                       # Bytes accessed per row activation
system.mem_ctrls.dram.bytesPerActivate::gmean   109.508476                       # Bytes accessed per row activation
system.mem_ctrls.dram.bytesPerActivate::stdev   254.718941                       # Bytes accessed per row activation
system.mem_ctrls.dram.bytesPerActivate::0-127        72608     68.10%     68.10% # Bytes accessed per row activation
system.mem_ctrls.dram.bytesPerActivate::128-255        12444     11.67%     79.77% # Bytes accessed per row activation
system.mem_ctrls.dram.bytesPerActivate::256-383         2497      2.34%     82.11% # Bytes accessed per row activation
system.mem_ctrls.dram.bytesPerActivate::384-511         2903      2.72%     84.84% # Bytes accessed per row activation
system.mem_ctrls.dram.bytesPerActivate::512-639         8980      8.42%     93.26% # Bytes accessed per row activation
system.mem_ctrls.dram.bytesPerActivate::640-767          460      0.43%     93.69% # Bytes accessed per row activation
system.mem_ctrls.dram.bytesPerActivate::768-895          416      0.39%     94.08% # Bytes accessed per row activation
system.mem_ctrls.dram.bytesPerActivate::896-1023          400      0.38%     94.46% # Bytes accessed per row activation
system.mem_ctrls.dram.bytesPerActivate::1024-1151         5910      5.54%    100.00% # Bytes accessed per row activation
system.mem_ctrls.dram.bytesPerActivate::total       106618                       # Bytes accessed per row activation
system.mem_ctrls.dram.bytesRead              12916032                       # Total number of bytes read from DRAM
system.mem_ctrls.dram.bytesWritten            7134528                       # Total number of bytes written to DRAM
system.mem_ctrls.dram.avgRdBW              118.199914                       # Average DRAM read bandwidth in MiBytes/s
system.mem_ctrls.dram.avgWrBW               65.290996                       # Average DRAM write bandwidth in MiBytes/s
system.mem_ctrls.dram.peakBW                 12800.00                       # Theoretical peak bandwidth in MiByte/s
system.mem_ctrls.dram.busUtil                    1.43                       # Data bus utilization in percentage
system.mem_ctrls.dram.busUtilRead                0.92                       # Data bus utilization in percentage for reads
system.mem_ctrls.dram.busUtilWrite               0.51                       # Data bus utilization in percentage for writes
system.mem_ctrls.dram.pageHitRate               65.97                       # Row buffer hit rate, read and write combined
system.mem_ctrls.dram.power_state.pwrStateResidencyTicks::UNDEFINED 109272769747                       # Cumulative time (in ticks) in various power states
system.mem_ctrls.dram.rank0.actEnergy       384581820                       # Energy for activate commands per rank (pJ)
system.mem_ctrls.dram.rank0.preEnergy       204410085                       # Energy for precharge commands per rank (pJ)
system.mem_ctrls.dram.rank0.readEnergy      722018220                       # Energy for read commands per rank (pJ)
system.mem_ctrls.dram.rank0.writeEnergy     294204420                       # Energy for write commands per rank (pJ)
system.mem_ctrls.dram.rank0.refreshEnergy 8625857760.000002                       # Energy for refresh commands per rank (pJ)
system.mem_ctrls.dram.rank0.actBackEnergy  26284933830                       # Energy for active background per rank (pJ)
system.mem_ctrls.dram.rank0.preBackEnergy  19826062560                       # Energy for precharge background per rank (pJ)
system.mem_ctrls.dram.rank0.actPowerDownEnergy            0                       # Energy for active power-down per rank (pJ)
system.mem_ctrls.dram.rank0.prePowerDownEnergy            0                       # Energy for precharge power-down per rank (pJ)
system.mem_ctrls.dram.rank0.selfRefreshEnergy            0                       # Energy for self refresh per rank (pJ)
system.mem_ctrls.dram.rank0.totalEnergy   56342068695                       # Total energy per rank (pJ)
system.mem_ctrls.dram.rank0.averagePower   515.609413                       # Core power per rank (mW)
system.mem_ctrls.dram.rank0.totalIdleTime            0                       # Total Idle time Per DRAM Rank
system.mem_ctrls.dram.rank0.pwrStateTime::IDLE  51268285859                       # Time in different power states
system.mem_ctrls.dram.rank0.pwrStateTime::REF   3648840000                       # Time in different power states
system.mem_ctrls.dram.rank0.pwrStateTime::SREF            0                       # Time in different power states
system.mem_ctrls.dram.rank0.pwrStateTime::PRE_PDN            0                       # Time in different power states
system.mem_ctrls.dram.rank0.pwrStateTime::ACT  54355643888                       # Time in different power states
system.mem_ctrls.dram.rank0.pwrStateTime::ACT_PDN            0                       # Time in different power states
system.mem_ctrls.dram.rank1.actEnergy       376670700                       # Energy for activate commands per rank (pJ)
system.mem_ctrls.dram.rank1.preEnergy       200205225                       # Energy for precharge commands per rank (pJ)
system.mem_ctrls.dram.rank1.readEnergy      718926600                       # Energy for read commands per rank (pJ)
system.mem_ctrls.dram.rank1.writeEnergy     287705520                       # Energy for write commands per rank (pJ)
system.mem_ctrls.dram.rank1.refreshEnergy 8625857760.000002                       # Energy for refresh commands per rank (pJ)
system.mem_ctrls.dram.rank1.actBackEnergy  25783893000                       # Energy for active background per rank (pJ)
system.mem_ctrls.dram.rank1.preBackEnergy  20247991680                       # Energy for precharge background per rank (pJ)
system.mem_ctrls.dram.rank1.actPowerDownEnergy            0                       # Energy for active power-down per rank (pJ)
system.mem_ctrls.dram.rank1.prePowerDownEnergy            0                       # Energy for precharge power-down per rank (pJ)
system.mem_ctrls.dram.rank1.selfRefreshEnergy            0                       # Energy for self refresh per rank (pJ)
system.mem_ctrls.dram.rank1.totalEnergy   56241250485                       # Total energy per rank (pJ)
system.mem_ctrls.dram.rank1.averagePower   514.686784                       # Core power per rank (mW)
system.mem_ctrls.dram.rank1.totalIdleTime            0                       # Total Idle time Per DRAM Rank
system.mem_ctrls.dram.rank1.pwrStateTime::IDLE  52368638880                       # Time in different power states
system.mem_ctrls.dram.rank1.pwrStateTime::REF   3648840000                       # Time in different power states
system.mem_ctrls.dram.rank1.pwrStateTime::SREF            0                       # Time in different power states
system.mem_ctrls.dram.rank1.pwrStateTime::PRE_PDN            0                       # Time in different power states
system.mem_ctrls.dram.rank1.pwrStateTime::ACT  53255290867                       # Time in different power states
system.mem_ctrls.dram.rank1.pwrStateTime::ACT_PDN            0                       # Time in different power states
system.mem_ctrls.power_state.pwrStateResidencyTicks::UNDEFINED 109272769747                       # Cumulative time (in ticks) in various power states
system.membus.trans_dist::ReadResp              65244                       # Transaction distribution
system.membus.trans_dist::WritebackDirty       111499                       # Transaction distribution
system.membus.trans_dist::CleanEvict            57215                       # Transaction distribution
system.membus.trans_dist::ReadExReq            136622                       # Transaction distribution
system.membus.trans_dist::ReadExResp           136622                       # Transaction distribution
system.membus.trans_dist::ReadSharedReq         65244                       # Transaction distribution
system.membus.pkt_count_system.l2.mem_side_port::system.mem_ctrls.port       572446                       # Packet count per connected requestor and responder (bytes)
system.membus.pkt_count::total                 572446                       # Packet count per connected requestor and responder (bytes)
system.membus.pkt_size_system.l2.mem_side_port::system.mem_ctrls.port     20055360                       # Cumulative packet size per connected requestor and responder (bytes)
system.membus.pkt_size::total                20055360                       # Cumulative packet size per connected requestor and responder (bytes)
system.membus.snoops                                0                       # Total snoops (count)
system.membus.snoopTraffic                          0                       # Total snoop traffic (bytes)
system.membus.snoop_fanout::samples            201866                       # Request fanout histogram
system.membus.snoop_fanout::mean                    0                       # Request fanout histogram
system.membus.snoop_fanout::stdev                   0                       # Request fanout histogram
system.membus.snoop_fanout::underflows              0      0.00%      0.00% # Request fanout histogram
system.membus.snoop_fanout::0                  201866    100.00%    100.00% # Request fanout histogram
system.membus.snoop_fanout::1                       0      0.00%    100.00% # Request fanout histogram
system.membus.snoop_fanout::overflows               0      0.00%    100.00% # Request fanout histogram
system.membus.snoop_fanout::min_value               0                       # Request fanout histogram
system.membus.snoop_fanout::max_value               0                       # Request fanout histogram
system.membus.snoop_fanout::total              201866                       # Request fanout histogram
system.membus.power_state.pwrStateResidencyTicks::UNDEFINED 109272769747                       # Cumulative time (in ticks) in various power states
system.membus.reqLayer0.occupancy           959711446                       # Layer occupancy (ticks)
system.membus.reqLayer0.utilization               0.9                       # Layer utilization (%)
system.membus.respLayer1.occupancy         1088695777                       # Layer occupancy (ticks)
system.membus.respLayer1.utilization              1.0                       # Layer utilization (%)
system.tol2bus.trans_dist::ReadResp            396786                       # Transaction distribution
system.tol2bus.trans_dist::WritebackDirty       719538                       # Transaction distribution
system.tol2bus.trans_dist::WritebackClean          335                       # Transaction distribution
system.tol2bus.trans_dist::CleanEvict          131463                       # Transaction distribution
system.tol2bus.trans_dist::ReadExReq           286780                       # Transaction distribution
system.tol2bus.trans_dist::ReadExResp          286780                       # Transaction distribution
system.tol2bus.trans_dist::ReadCleanReq           779                       # Transaction distribution
system.tol2bus.trans_dist::ReadSharedReq       396007                       # Transaction distribution
system.tol2bus.pkt_count_system.cpu.icache.mem_side_port::system.l2.cpu_side_port         1893                       # Packet count per connected requestor and responder (bytes)
system.tol2bus.pkt_count_system.cpu.dcache.mem_side_port::system.l2.cpu_side_port      2047337                       # Packet count per connected requestor and responder (bytes)
system.tol2bus.pkt_count::total               2049230                       # Packet count per connected requestor and responder (bytes)
system.tol2bus.pkt_size_system.cpu.icache.mem_side_port::system.l2.cpu_side_port        71296                       # Cumulative packet size per connected requestor and responder (bytes)
system.tol2bus.pkt_size_system.cpu.dcache.mem_side_port::system.l2.cpu_side_port     82612864                       # Cumulative packet size per connected requestor and responder (bytes)
system.tol2bus.pkt_size::total               82684160                       # Cumulative packet size per connected requestor and responder (bytes)
system.tol2bus.snoops                          169238                       # Total snoops (count)
system.tol2bus.snoopTraffic                   7135936                       # Total snoop traffic (bytes)
system.tol2bus.snoop_fanout::samples           852804                       # Request fanout histogram
system.tol2bus.snoop_fanout::mean            0.000708                       # Request fanout histogram
system.tol2bus.snoop_fanout::stdev           0.026604                       # Request fanout histogram
system.tol2bus.snoop_fanout::underflows             0      0.00%      0.00% # Request fanout histogram
system.tol2bus.snoop_fanout::0                 852200     99.93%     99.93% # Request fanout histogram
system.tol2bus.snoop_fanout::1                    604      0.07%    100.00% # Request fanout histogram
system.tol2bus.snoop_fanout::2                      0      0.00%    100.00% # Request fanout histogram
system.tol2bus.snoop_fanout::overflows              0      0.00%    100.00% # Request fanout histogram
system.tol2bus.snoop_fanout::min_value              0                       # Request fanout histogram
system.tol2bus.snoop_fanout::max_value              1                       # Request fanout histogram
system.tol2bus.snoop_fanout::total             852804                       # Request fanout histogram
system.tol2bus.power_state.pwrStateResidencyTicks::UNDEFINED 109272769747                       # Cumulative time (in ticks) in various power states
system.tol2bus.reqLayer0.occupancy         1722468804                       # Layer occupancy (ticks)
system.tol2bus.reqLayer0.utilization              1.6                       # Layer utilization (%)
system.tol2bus.respLayer0.occupancy           1559445                       # Layer occupancy (ticks)
system.tol2bus.respLayer0.utilization             0.0                       # Layer utilization (%)
system.tol2bus.respLayer1.occupancy        1366260117                       # Layer occupancy (ticks)
system.tol2bus.respLayer1.utilization             1.3                       # Layer utilization (%)
system.voltage_domain.voltage                       1                       # Voltage in Volts

---------- End Simulation Statistics   ----------
